35
  -OEChem-05192314333D
 Structure written by MMmdl.
 50 54  0     0  0  0  0  0  0999 V2000
   -6.3895   12.3678  -12.0373 C   0  0  0  0  0  0  0  0  0  0  0  0
   -6.4824   11.8098  -10.7511 C   0  0  0  0  0  0  0  0  0  0  0  0
   -7.7271   10.5745  -13.0290 C   0  0  0  0  0  0  0  0  0  0  0  0
   -7.0179   11.7711  -13.1287 C   0  0  0  0  0  0  0  0  0  0  0  0
   -7.8170   10.0145  -11.7522 C   0  0  0  0  0  0  0  0  0  0  0  0
   -7.2238   10.6236  -10.6024 C   0  0  0  0  0  0  0  0  0  0  0  0
   -7.6044    9.7508   -9.5065 C   0  0  0  0  0  0  0  0  0  0  0  0
   -8.2828    8.7443   -9.9813 N   0  0  0  0  0  0  0  0  0  0  0  0
   -8.4172    8.8704  -11.2949 N   0  0  0  0  0  0  0  0  0  0  0  0
   -7.3303    9.8854   -8.0203 C   0  0  0  0  0  0  0  0  0  0  0  0
   -4.3418   13.6528  -11.7950 N   0  0  0  0  0  0  0  0  0  0  0  0
   -5.6106   13.6402  -12.2589 C   0  0  0  0  0  0  0  0  0  0  0  0
   -6.1045   14.5768  -12.8828 O   0  0  0  0  0  0  0  0  0  0  0  0
   -5.9605   10.4846   -7.7337 C   0  0  0  0  0  0  0  0  0  0  0  0
   -4.8084    9.7674   -8.0514 C   0  0  0  0  0  0  0  0  0  0  0  0
   -3.5547   10.3189   -7.8020 C   0  0  0  0  0  0  0  0  0  0  0  0
   -3.4471   11.5931   -7.2348 C   0  0  0  0  0  0  0  0  0  0  0  0
   -4.6026   12.3073   -6.9145 C   0  0  0  0  0  0  0  0  0  0  0  0
   -5.8562   11.7556   -7.1614 C   0  0  0  0  0  0  0  0  0  0  0  0
   -2.1021   12.1835   -6.9708 C   0  0  0  0  0  0  0  0  0  0  0  0
   -1.7710   13.4390   -6.4702 C   0  0  0  0  0  0  0  0  0  0  0  0
   -0.4354   13.4950   -6.4103 N   0  0  0  0  0  0  0  0  0  0  0  0
    0.1709   12.4112   -6.8070 N   0  0  0  0  0  0  0  0  0  0  0  0
   -0.8030   11.5943   -7.1763 C   0  0  0  0  0  0  0  0  0  0  0  0
    0.3771   14.6141   -5.9576 C   0  0  0  0  0  0  0  0  0  0  0  0
   -3.4422   12.5360  -11.3947 C   0  0  0  0  0  0  0  0  0  0  0  0
   -2.3230   13.6139  -11.4067 C   0  0  0  0  0  0  0  0  0  0  0  0
   -3.2958   14.6820  -11.9593 C   0  0  0  0  0  0  0  0  0  0  0  0
   -1.7380   13.9356  -10.1565 O   0  0  0  0  0  0  0  0  0  0  0  0
   -6.0005   12.2762   -9.9046 H   0  0  0  0  0  0  0  0  0  0  0  0
   -8.1812   10.1071  -13.8902 H   0  0  0  0  0  0  0  0  0  0  0  0
   -6.9530   12.2555  -14.0918 H   0  0  0  0  0  0  0  0  0  0  0  0
   -8.6477    7.9894   -9.4364 H   0  0  0  0  0  0  0  0  0  0  0  0
   -8.0995   10.5347   -7.5768 H   0  0  0  0  0  0  0  0  0  0  0  0
   -7.3826    8.8878   -7.5599 H   0  0  0  0  0  0  0  0  0  0  0  0
   -4.8882    8.7841   -8.4909 H   0  0  0  0  0  0  0  0  0  0  0  0
   -2.6627    9.7615   -8.0471 H   0  0  0  0  0  0  0  0  0  0  0  0
   -4.5238   13.2903   -6.4741 H   0  0  0  0  0  0  0  0  0  0  0  0
   -6.7487   12.3097   -6.9107 H   0  0  0  0  0  0  0  0  0  0  0  0
   -2.4606   14.2195   -6.1845 H   0  0  0  0  0  0  0  0  0  0  0  0
   -0.6435   10.6063   -7.5823 H   0  0  0  0  0  0  0  0  0  0  0  0
    1.4419   14.3470   -6.0280 H   0  0  0  0  0  0  0  0  0  0  0  0
    0.1769   15.4918   -6.5897 H   0  0  0  0  0  0  0  0  0  0  0  0
    0.1266   14.8499   -4.9128 H   0  0  0  0  0  0  0  0  0  0  0  0
   -3.6551   12.0930  -10.4106 H   0  0  0  0  0  0  0  0  0  0  0  0
   -3.3293   11.7354  -12.1405 H   0  0  0  0  0  0  0  0  0  0  0  0
   -1.5662   13.3629  -12.1645 H   0  0  0  0  0  0  0  0  0  0  0  0
   -3.1063   14.9918  -12.9976 H   0  0  0  0  0  0  0  0  0  0  0  0
   -3.4165   15.5738  -11.3267 H   0  0  0  0  0  0  0  0  0  0  0  0
   -1.0709   14.6005  -10.2803 H   0  0  0  0  0  0  0  0  0  0  0  0
  1  2  2  0  0  0  0
  1  4  1  0  0  0  0
  1 12  1  0  0  0  0
  2  6  1  0  0  0  0
  3  4  2  0  0  0  0
  3  5  1  0  0  0  0
  5  6  1  0  0  0  0
  5  9  2  0  0  0  0
  6  7  2  0  0  0  0
  7  8  1  0  0  0  0
  7 10  1  0  0  0  0
  8  9  1  0  0  0  0
 10 14  1  0  0  0  0
 11 12  1  0  0  0  0
 11 26  1  0  0  0  0
 11 28  1  0  0  0  0
 12 13  2  0  0  0  0
 14 15  2  0  0  0  0
 14 19  1  0  0  0  0
 15 16  1  0  0  0  0
 16 17  2  0  0  0  0
 17 18  1  0  0  0  0
 17 20  1  0  0  0  0
 18 19  2  0  0  0  0
 20 21  2  0  0  0  0
 20 24  1  0  0  0  0
 21 22  1  0  0  0  0
 22 23  1  0  0  0  0
 22 25  1  0  0  0  0
 23 24  2  0  0  0  0
 26 27  1  0  0  0  0
 27 28  1  0  0  0  0
 27 29  1  0  0  0  0
  2 30  1  0  0  0  0
  3 31  1  0  0  0  0
  4 32  1  0  0  0  0
  8 33  1  0  0  0  0
 10 34  1  0  0  0  0
 10 35  1  0  0  0  0
 15 36  1  0  0  0  0
 16 37  1  0  0  0  0
 18 38  1  0  0  0  0
 19 39  1  0  0  0  0
 21 40  1  0  0  0  0
 24 41  1  0  0  0  0
 25 42  1  0  0  0  0
 25 43  1  0  0  0  0
 25 44  1  0  0  0  0
 26 45  1  0  0  0  0
 26 46  1  0  0  0  0
 27 47  1  0  0  0  0
 28 48  1  0  0  0  0
 28 49  1  0  0  0  0
 29 50  1  0  0  0  0
M  END
> <Name>
35

> <IC50[uM]>
0.004

$$$$
35
  -OEChem-05192314333D
 Structure written by MMmdl.
 50 54  0     0  0  0  0  0  0999 V2000
   -6.3895   12.3678  -12.0373 C   0  0  0  0  0  0  0  0  0  0  0  0
   -6.4824   11.8098  -10.7511 C   0  0  0  0  0  0  0  0  0  0  0  0
   -7.7271   10.5745  -13.0290 C   0  0  0  0  0  0  0  0  0  0  0  0
   -7.0179   11.7711  -13.1287 C   0  0  0  0  0  0  0  0  0  0  0  0
   -7.8170   10.0145  -11.7522 C   0  0  0  0  0  0  0  0  0  0  0  0
   -7.2238   10.6236  -10.6024 C   0  0  0  0  0  0  0  0  0  0  0  0
   -7.6044    9.7508   -9.5065 C   0  0  0  0  0  0  0  0  0  0  0  0
   -8.2828    8.7443   -9.9813 N   0  0  0  0  0  0  0  0  0  0  0  0
   -8.4172    8.8704  -11.2949 N   0  0  0  0  0  0  0  0  0  0  0  0
   -7.3303    9.8854   -8.0203 C   0  0  0  0  0  0  0  0  0  0  0  0
   -4.3418   13.6528  -11.7950 N   0  0  0  0  0  0  0  0  0  0  0  0
   -5.6106   13.6402  -12.2589 C   0  0  0  0  0  0  0  0  0  0  0  0
   -6.1045   14.5768  -12.8828 O   0  0  0  0  0  0  0  0  0  0  0  0
   -5.9605   10.4846   -7.7337 C   0  0  0  0  0  0  0  0  0  0  0  0
   -4.8084    9.7674   -8.0514 C   0  0  0  0  0  0  0  0  0  0  0  0
   -3.5547   10.3189   -7.8020 C   0  0  0  0  0  0  0  0  0  0  0  0
   -3.4471   11.5931   -7.2348 C   0  0  0  0  0  0  0  0  0  0  0  0
   -4.6026   12.3073   -6.9145 C   0  0  0  0  0  0  0  0  0  0  0  0
   -5.8562   11.7556   -7.1614 C   0  0  0  0  0  0  0  0  0  0  0  0
   -2.1021   12.1835   -6.9708 C   0  0  0  0  0  0  0  0  0  0  0  0
   -1.7710   13.4390   -6.4702 C   0  0  0  0  0  0  0  0  0  0  0  0
   -0.4354   13.4950   -6.4103 N   0  0  0  0  0  0  0  0  0  0  0  0
    0.1709   12.4112   -6.8070 N   0  0  0  0  0  0  0  0  0  0  0  0
   -0.8030   11.5943   -7.1763 C   0  0  0  0  0  0  0  0  0  0  0  0
    0.3771   14.6141   -5.9576 C   0  0  0  0  0  0  0  0  0  0  0  0
   -3.4422   12.5360  -11.3947 C   0  0  0  0  0  0  0  0  0  0  0  0
   -2.3230   13.6139  -11.4067 C   0  0  0  0  0  0  0  0  0  0  0  0
   -3.2958   14.6820  -11.9593 C   0  0  0  0  0  0  0  0  0  0  0  0
   -1.7380   13.9356  -10.1565 O   0  0  0  0  0  0  0  0  0  0  0  0
   -6.0005   12.2762   -9.9046 H   0  0  0  0  0  0  0  0  0  0  0  0
   -8.1812   10.1071  -13.8902 H   0  0  0  0  0  0  0  0  0  0  0  0
   -6.9530   12.2555  -14.0918 H   0  0  0  0  0  0  0  0  0  0  0  0
   -8.8959    8.2138  -11.8778 H   0  0  0  0  0  0  0  0  0  0  0  0
   -8.0995   10.5347   -7.5768 H   0  0  0  0  0  0  0  0  0  0  0  0
   -7.3826    8.8878   -7.5599 H   0  0  0  0  0  0  0  0  0  0  0  0
   -4.8882    8.7841   -8.4909 H   0  0  0  0  0  0  0  0  0  0  0  0
   -2.6627    9.7615   -8.0471 H   0  0  0  0  0  0  0  0  0  0  0  0
   -4.5238   13.2903   -6.4741 H   0  0  0  0  0  0  0  0  0  0  0  0
   -6.7487   12.3097   -6.9107 H   0  0  0  0  0  0  0  0  0  0  0  0
   -2.4606   14.2195   -6.1845 H   0  0  0  0  0  0  0  0  0  0  0  0
   -0.6435   10.6063   -7.5823 H   0  0  0  0  0  0  0  0  0  0  0  0
    1.4419   14.3470   -6.0280 H   0  0  0  0  0  0  0  0  0  0  0  0
    0.1769   15.4918   -6.5897 H   0  0  0  0  0  0  0  0  0  0  0  0
    0.1266   14.8499   -4.9128 H   0  0  0  0  0  0  0  0  0  0  0  0
   -3.6551   12.0930  -10.4106 H   0  0  0  0  0  0  0  0  0  0  0  0
   -3.3293   11.7354  -12.1405 H   0  0  0  0  0  0  0  0  0  0  0  0
   -1.5662   13.3629  -12.1645 H   0  0  0  0  0  0  0  0  0  0  0  0
   -3.1063   14.9918  -12.9976 H   0  0  0  0  0  0  0  0  0  0  0  0
   -3.4165   15.5738  -11.3267 H   0  0  0  0  0  0  0  0  0  0  0  0
   -1.0709   14.6005  -10.2803 H   0  0  0  0  0  0  0  0  0  0  0  0
  1  2  2  0  0  0  0
  1  4  1  0  0  0  0
  1 12  1  0  0  0  0
  2  6  1  0  0  0  0
  3  4  2  0  0  0  0
  3  5  1  0  0  0  0
  5  6  2  0  0  0  0
  5  9  1  0  0  0  0
  6  7  1  0  0  0  0
  7  8  2  0  0  0  0
  7 10  1  0  0  0  0
  8  9  1  0  0  0  0
 10 14  1  0  0  0  0
 11 12  1  0  0  0  0
 11 26  1  0  0  0  0
 11 28  1  0  0  0  0
 12 13  2  0  0  0  0
 14 15  2  0  0  0  0
 14 19  1  0  0  0  0
 15 16  1  0  0  0  0
 16 17  2  0  0  0  0
 17 18  1  0  0  0  0
 17 20  1  0  0  0  0
 18 19  2  0  0  0  0
 20 21  2  0  0  0  0
 20 24  1  0  0  0  0
 21 22  1  0  0  0  0
 22 23  1  0  0  0  0
 22 25  1  0  0  0  0
 23 24  2  0  0  0  0
 26 27  1  0  0  0  0
 27 28  1  0  0  0  0
 27 29  1  0  0  0  0
  2 30  1  0  0  0  0
  3 31  1  0  0  0  0
  4 32  1  0  0  0  0
  9 33  1  0  0  0  0
 10 34  1  0  0  0  0
 10 35  1  0  0  0  0
 15 36  1  0  0  0  0
 16 37  1  0  0  0  0
 18 38  1  0  0  0  0
 19 39  1  0  0  0  0
 21 40  1  0  0  0  0
 24 41  1  0  0  0  0
 25 42  1  0  0  0  0
 25 43  1  0  0  0  0
 25 44  1  0  0  0  0
 26 45  1  0  0  0  0
 26 46  1  0  0  0  0
 27 47  1  0  0  0  0
 28 48  1  0  0  0  0
 28 49  1  0  0  0  0
 29 50  1  0  0  0  0
M  END
> <Name>
35

> <IC50[uM]>
0.004

$$$$
35
  -OEChem-05192314333D
 Structure written by MMmdl.
 50 54  0     1  0  0  0  0  0999 V2000
   -6.3895   12.3678  -12.0373 C   0  0  0  0  0  0  0  0  0  0  0  0
   -6.4824   11.8098  -10.7511 C   0  0  0  0  0  0  0  0  0  0  0  0
   -7.7271   10.5745  -13.0290 C   0  0  0  0  0  0  0  0  0  0  0  0
   -7.0179   11.7711  -13.1287 C   0  0  0  0  0  0  0  0  0  0  0  0
   -7.8170   10.0145  -11.7522 C   0  0  0  0  0  0  0  0  0  0  0  0
   -7.2238   10.6236  -10.6024 C   0  0  0  0  0  0  0  0  0  0  0  0
   -7.6044    9.7508   -9.5065 C   0  0  3  0  0  0  0  0  0  0  0  0
   -8.2828    8.7443   -9.9813 N   0  0  0  0  0  0  0  0  0  0  0  0
   -8.4172    8.8704  -11.2949 N   0  0  0  0  0  0  0  0  0  0  0  0
   -7.3303    9.8854   -8.0203 C   0  0  0  0  0  0  0  0  0  0  0  0
   -4.3418   13.6528  -11.7950 N   0  0  0  0  0  0  0  0  0  0  0  0
   -5.6106   13.6402  -12.2589 C   0  0  0  0  0  0  0  0  0  0  0  0
   -6.1045   14.5768  -12.8828 O   0  0  0  0  0  0  0  0  0  0  0  0
   -5.9605   10.4846   -7.7337 C   0  0  0  0  0  0  0  0  0  0  0  0
   -4.8084    9.7674   -8.0514 C   0  0  0  0  0  0  0  0  0  0  0  0
   -3.5547   10.3189   -7.8020 C   0  0  0  0  0  0  0  0  0  0  0  0
   -3.4471   11.5931   -7.2348 C   0  0  0  0  0  0  0  0  0  0  0  0
   -4.6026   12.3073   -6.9145 C   0  0  0  0  0  0  0  0  0  0  0  0
   -5.8562   11.7556   -7.1614 C   0  0  0  0  0  0  0  0  0  0  0  0
   -2.1021   12.1835   -6.9708 C   0  0  0  0  0  0  0  0  0  0  0  0
   -1.7710   13.4390   -6.4702 C   0  0  0  0  0  0  0  0  0  0  0  0
   -0.4354   13.4950   -6.4103 N   0  0  0  0  0  0  0  0  0  0  0  0
    0.1709   12.4112   -6.8070 N   0  0  0  0  0  0  0  0  0  0  0  0
   -0.8030   11.5943   -7.1763 C   0  0  0  0  0  0  0  0  0  0  0  0
    0.3771   14.6141   -5.9576 C   0  0  0  0  0  0  0  0  0  0  0  0
   -3.4422   12.5360  -11.3947 C   0  0  0  0  0  0  0  0  0  0  0  0
   -2.3230   13.6139  -11.4067 C   0  0  0  0  0  0  0  0  0  0  0  0
   -3.2958   14.6820  -11.9593 C   0  0  0  0  0  0  0  0  0  0  0  0
   -1.7380   13.9356  -10.1565 O   0  0  0  0  0  0  0  0  0  0  0  0
   -6.0005   12.2762   -9.9046 H   0  0  0  0  0  0  0  0  0  0  0  0
   -8.1812   10.1071  -13.8902 H   0  0  0  0  0  0  0  0  0  0  0  0
   -6.9530   12.2555  -14.0918 H   0  0  0  0  0  0  0  0  0  0  0  0
   -6.6701    9.1835   -9.6302 H   0  0  0  0  0  0  0  0  0  0  0  0
   -8.0995   10.5347   -7.5768 H   0  0  0  0  0  0  0  0  0  0  0  0
   -7.3826    8.8878   -7.5599 H   0  0  0  0  0  0  0  0  0  0  0  0
   -4.8882    8.7841   -8.4909 H   0  0  0  0  0  0  0  0  0  0  0  0
   -2.6627    9.7615   -8.0471 H   0  0  0  0  0  0  0  0  0  0  0  0
   -4.5238   13.2903   -6.4741 H   0  0  0  0  0  0  0  0  0  0  0  0
   -6.7487   12.3097   -6.9107 H   0  0  0  0  0  0  0  0  0  0  0  0
   -2.4606   14.2195   -6.1845 H   0  0  0  0  0  0  0  0  0  0  0  0
   -0.6435   10.6063   -7.5823 H   0  0  0  0  0  0  0  0  0  0  0  0
    1.4419   14.3470   -6.0280 H   0  0  0  0  0  0  0  0  0  0  0  0
    0.1769   15.4918   -6.5897 H   0  0  0  0  0  0  0  0  0  0  0  0
    0.1266   14.8499   -4.9128 H   0  0  0  0  0  0  0  0  0  0  0  0
   -3.6551   12.0930  -10.4106 H   0  0  0  0  0  0  0  0  0  0  0  0
   -3.3293   11.7354  -12.1405 H   0  0  0  0  0  0  0  0  0  0  0  0
   -1.5662   13.3629  -12.1645 H   0  0  0  0  0  0  0  0  0  0  0  0
   -3.1063   14.9918  -12.9976 H   0  0  0  0  0  0  0  0  0  0  0  0
   -3.4165   15.5738  -11.3267 H   0  0  0  0  0  0  0  0  0  0  0  0
   -1.0709   14.6005  -10.2803 H   0  0  0  0  0  0  0  0  0  0  0  0
  1  2  2  0  0  0  0
  1  4  1  0  0  0  0
  1 12  1  0  0  0  0
  2  6  1  0  0  0  0
  3  4  2  0  0  0  0
  3  5  1  0  0  0  0
  5  6  2  0  0  0  0
  5  9  1  0  0  0  0
  6  7  1  0  0  0  0
  7  8  1  0  0  0  0
  7 10  1  0  0  0  0
  8  9  2  0  0  0  0
 10 14  1  0  0  0  0
 11 12  1  0  0  0  0
 11 26  1  0  0  0  0
 11 28  1  0  0  0  0
 12 13  2  0  0  0  0
 14 15  2  0  0  0  0
 14 19  1  0  0  0  0
 15 16  1  0  0  0  0
 16 17  2  0  0  0  0
 17 18  1  0  0  0  0
 17 20  1  0  0  0  0
 18 19  2  0  0  0  0
 20 21  2  0  0  0  0
 20 24  1  0  0  0  0
 21 22  1  0  0  0  0
 22 23  1  0  0  0  0
 22 25  1  0  0  0  0
 23 24  2  0  0  0  0
 26 27  1  0  0  0  0
 27 28  1  0  0  0  0
 27 29  1  0  0  0  0
  2 30  1  0  0  0  0
  3 31  1  0  0  0  0
  4 32  1  0  0  0  0
  7 33  1  0  0  0  0
 10 34  1  0  0  0  0
 10 35  1  0  0  0  0
 15 36  1  0  0  0  0
 16 37  1  0  0  0  0
 18 38  1  0  0  0  0
 19 39  1  0  0  0  0
 21 40  1  0  0  0  0
 24 41  1  0  0  0  0
 25 42  1  0  0  0  0
 25 43  1  0  0  0  0
 25 44  1  0  0  0  0
 26 45  1  0  0  0  0
 26 46  1  0  0  0  0
 27 47  1  0  0  0  0
 28 48  1  0  0  0  0
 28 49  1  0  0  0  0
 29 50  1  0  0  0  0
M  END
> <Name>
35

> <IC50[uM]>
0.004

$$$$
35
  -OEChem-05192314333D
 Structure written by MMmdl.
 50 54  0     0  0  0  0  0  0999 V2000
   -6.3895   12.3678  -12.0373 C   0  0  0  0  0  0  0  0  0  0  0  0
   -6.4824   11.8098  -10.7511 C   0  0  0  0  0  0  0  0  0  0  0  0
   -7.7271   10.5745  -13.0290 C   0  0  0  0  0  0  0  0  0  0  0  0
   -7.0179   11.7711  -13.1287 C   0  0  0  0  0  0  0  0  0  0  0  0
   -7.8170   10.0145  -11.7522 C   0  0  0  0  0  0  0  0  0  0  0  0
   -7.2238   10.6236  -10.6024 C   0  0  0  0  0  0  0  0  0  0  0  0
   -7.6044    9.7508   -9.5065 C   0  0  0  0  0  0  0  0  0  0  0  0
   -8.2828    8.7443   -9.9813 N   0  0  0  0  0  0  0  0  0  0  0  0
   -8.4172    8.8704  -11.2949 N   0  0  0  0  0  0  0  0  0  0  0  0
   -7.3303    9.8854   -8.0203 C   0  0  0  0  0  0  0  0  0  0  0  0
   -4.3418   13.6528  -11.7950 N   0  0  0  0  0  0  0  0  0  0  0  0
   -5.6106   13.6402  -12.2589 C   0  0  0  0  0  0  0  0  0  0  0  0
   -6.1045   14.5768  -12.8828 O   0  0  0  0  0  0  0  0  0  0  0  0
   -5.9605   10.4846   -7.7337 C   0  0  0  0  0  0  0  0  0  0  0  0
   -4.8084    9.7674   -8.0514 C   0  0  0  0  0  0  0  0  0  0  0  0
   -3.5547   10.3189   -7.8020 C   0  0  0  0  0  0  0  0  0  0  0  0
   -3.4471   11.5931   -7.2348 C   0  0  0  0  0  0  0  0  0  0  0  0
   -4.6026   12.3073   -6.9145 C   0  0  0  0  0  0  0  0  0  0  0  0
   -5.8562   11.7556   -7.1614 C   0  0  0  0  0  0  0  0  0  0  0  0
   -2.1021   12.1835   -6.9708 C   0  0  0  0  0  0  0  0  0  0  0  0
   -1.7710   13.4390   -6.4702 C   0  0  0  0  0  0  0  0  0  0  0  0
   -0.4354   13.4950   -6.4103 N   0  0  0  0  0  0  0  0  0  0  0  0
    0.1709   12.4112   -6.8070 N   0  0  0  0  0  0  0  0  0  0  0  0
   -0.8030   11.5943   -7.1763 C   0  0  0  0  0  0  0  0  0  0  0  0
    0.3771   14.6141   -5.9576 C   0  0  0  0  0  0  0  0  0  0  0  0
   -3.4422   12.5360  -11.3947 C   0  0  0  0  0  0  0  0  0  0  0  0
   -2.3230   13.6139  -11.4067 C   0  0  0  0  0  0  0  0  0  0  0  0
   -3.2958   14.6820  -11.9593 C   0  0  0  0  0  0  0  0  0  0  0  0
   -1.7380   13.9356  -10.1565 O   0  0  0  0  0  0  0  0  0  0  0  0
   -6.0005   12.2762   -9.9046 H   0  0  0  0  0  0  0  0  0  0  0  0
   -8.1812   10.1071  -13.8902 H   0  0  0  0  0  0  0  0  0  0  0  0
   -6.9530   12.2555  -14.0918 H   0  0  0  0  0  0  0  0  0  0  0  0
   -7.7994    7.8929   -9.7776 H   0  0  0  0  0  0  0  0  0  0  0  0
   -9.3909    8.9014  -11.5207 H   0  0  0  0  0  0  0  0  0  0  0  0
   -8.0288    9.5892   -7.2517 H   0  0  0  0  0  0  0  0  0  0  0  0
   -4.8882    8.7841   -8.4909 H   0  0  0  0  0  0  0  0  0  0  0  0
   -2.6627    9.7615   -8.0471 H   0  0  0  0  0  0  0  0  0  0  0  0
   -4.5238   13.2903   -6.4741 H   0  0  0  0  0  0  0  0  0  0  0  0
   -6.7487   12.3097   -6.9107 H   0  0  0  0  0  0  0  0  0  0  0  0
   -2.4606   14.2195   -6.1845 H   0  0  0  0  0  0  0  0  0  0  0  0
   -0.6435   10.6063   -7.5823 H   0  0  0  0  0  0  0  0  0  0  0  0
    1.4419   14.3470   -6.0280 H   0  0  0  0  0  0  0  0  0  0  0  0
    0.1769   15.4918   -6.5897 H   0  0  0  0  0  0  0  0  0  0  0  0
    0.1266   14.8499   -4.9128 H   0  0  0  0  0  0  0  0  0  0  0  0
   -3.6551   12.0930  -10.4106 H   0  0  0  0  0  0  0  0  0  0  0  0
   -3.3293   11.7354  -12.1405 H   0  0  0  0  0  0  0  0  0  0  0  0
   -1.5662   13.3629  -12.1645 H   0  0  0  0  0  0  0  0  0  0  0  0
   -3.1063   14.9918  -12.9976 H   0  0  0  0  0  0  0  0  0  0  0  0
   -3.4165   15.5738  -11.3267 H   0  0  0  0  0  0  0  0  0  0  0  0
   -1.0709   14.6005  -10.2803 H   0  0  0  0  0  0  0  0  0  0  0  0
  1  2  2  0  0  0  0
  1  4  1  0  0  0  0
  1 12  1  0  0  0  0
  2  6  1  0  0  0  0
  3  4  2  0  0  0  0
  3  5  1  0  0  0  0
  5  6  2  0  0  0  0
  5  9  1  0  0  0  0
  6  7  1  0  0  0  0
  7  8  1  0  0  0  0
  7 10  2  3  0  0  0
  8  9  1  0  0  0  0
 10 14  1  0  0  0  0
 11 12  1  0  0  0  0
 11 26  1  0  0  0  0
 11 28  1  0  0  0  0
 12 13  2  0  0  0  0
 14 15  2  0  0  0  0
 14 19  1  0  0  0  0
 15 16  1  0  0  0  0
 16 17  2  0  0  0  0
 17 18  1  0  0  0  0
 17 20  1  0  0  0  0
 18 19  2  0  0  0  0
 20 21  2  0  0  0  0
 20 24  1  0  0  0  0
 21 22  1  0  0  0  0
 22 23  1  0  0  0  0
 22 25  1  0  0  0  0
 23 24  2  0  0  0  0
 26 27  1  0  0  0  0
 27 28  1  0  0  0  0
 27 29  1  0  0  0  0
  2 30  1  0  0  0  0
  3 31  1  0  0  0  0
  4 32  1  0  0  0  0
  8 33  1  0  0  0  0
  9 34  1  0  0  0  0
 10 35  1  0  0  0  0
 15 36  1  0  0  0  0
 16 37  1  0  0  0  0
 18 38  1  0  0  0  0
 19 39  1  0  0  0  0
 21 40  1  0  0  0  0
 24 41  1  0  0  0  0
 25 42  1  0  0  0  0
 25 43  1  0  0  0  0
 25 44  1  0  0  0  0
 26 45  1  0  0  0  0
 26 46  1  0  0  0  0
 27 47  1  0  0  0  0
 28 48  1  0  0  0  0
 28 49  1  0  0  0  0
 29 50  1  0  0  0  0
M  END
> <Name>
35

> <IC50[uM]>
0.004

$$$$
35
  -OEChem-05192314333D
 Structure written by MMmdl.
 50 54  0     1  0  0  0  0  0999 V2000
   -6.3895   12.3678  -12.0373 C   0  0  3  0  0  0  0  0  0  0  0  0
   -6.4824   11.8098  -10.7511 C   0  0  0  0  0  0  0  0  0  0  0  0
   -7.7271   10.5745  -13.0290 C   0  0  0  0  0  0  0  0  0  0  0  0
   -7.0179   11.7711  -13.1287 C   0  0  0  0  0  0  0  0  0  0  0  0
   -7.8170   10.0145  -11.7522 C   0  0  0  0  0  0  0  0  0  0  0  0
   -7.2238   10.6236  -10.6024 C   0  0  0  0  0  0  0  0  0  0  0  0
   -7.6044    9.7508   -9.5065 C   0  0  0  0  0  0  0  0  0  0  0  0
   -8.2828    8.7443   -9.9813 N   0  0  0  0  0  0  0  0  0  0  0  0
   -8.4172    8.8704  -11.2949 N   0  0  0  0  0  0  0  0  0  0  0  0
   -7.3303    9.8854   -8.0203 C   0  0  0  0  0  0  0  0  0  0  0  0
   -4.3418   13.6528  -11.7950 N   0  0  0  0  0  0  0  0  0  0  0  0
   -5.6106   13.6402  -12.2589 C   0  0  0  0  0  0  0  0  0  0  0  0
   -6.1045   14.5768  -12.8828 O   0  0  0  0  0  0  0  0  0  0  0  0
   -5.9605   10.4846   -7.7337 C   0  0  0  0  0  0  0  0  0  0  0  0
   -4.8084    9.7674   -8.0514 C   0  0  0  0  0  0  0  0  0  0  0  0
   -3.5547   10.3189   -7.8020 C   0  0  0  0  0  0  0  0  0  0  0  0
   -3.4471   11.5931   -7.2348 C   0  0  0  0  0  0  0  0  0  0  0  0
   -4.6026   12.3073   -6.9145 C   0  0  0  0  0  0  0  0  0  0  0  0
   -5.8562   11.7556   -7.1614 C   0  0  0  0  0  0  0  0  0  0  0  0
   -2.1021   12.1835   -6.9708 C   0  0  0  0  0  0  0  0  0  0  0  0
   -1.7710   13.4390   -6.4702 C   0  0  0  0  0  0  0  0  0  0  0  0
   -0.4354   13.4950   -6.4103 N   0  0  0  0  0  0  0  0  0  0  0  0
    0.1709   12.4112   -6.8070 N   0  0  0  0  0  0  0  0  0  0  0  0
   -0.8030   11.5943   -7.1763 C   0  0  0  0  0  0  0  0  0  0  0  0
    0.3771   14.6141   -5.9576 C   0  0  0  0  0  0  0  0  0  0  0  0
   -3.4422   12.5360  -11.3947 C   0  0  0  0  0  0  0  0  0  0  0  0
   -2.3230   13.6139  -11.4067 C   0  0  0  0  0  0  0  0  0  0  0  0
   -3.2958   14.6820  -11.9593 C   0  0  0  0  0  0  0  0  0  0  0  0
   -1.7380   13.9356  -10.1565 O   0  0  0  0  0  0  0  0  0  0  0  0
   -5.4830   11.7758  -12.2318 H   0  0  0  0  0  0  0  0  0  0  0  0
   -6.0005   12.2762   -9.9046 H   0  0  0  0  0  0  0  0  0  0  0  0
   -8.1812   10.1071  -13.8902 H   0  0  0  0  0  0  0  0  0  0  0  0
   -6.9530   12.2555  -14.0918 H   0  0  0  0  0  0  0  0  0  0  0  0
   -8.6477    7.9894   -9.4364 H   0  0  0  0  0  0  0  0  0  0  0  0
   -8.0288    9.5892   -7.2517 H   0  0  0  0  0  0  0  0  0  0  0  0
   -4.8882    8.7841   -8.4909 H   0  0  0  0  0  0  0  0  0  0  0  0
   -2.6627    9.7615   -8.0471 H   0  0  0  0  0  0  0  0  0  0  0  0
   -4.5238   13.2903   -6.4741 H   0  0  0  0  0  0  0  0  0  0  0  0
   -6.7487   12.3097   -6.9107 H   0  0  0  0  0  0  0  0  0  0  0  0
   -2.4606   14.2195   -6.1845 H   0  0  0  0  0  0  0  0  0  0  0  0
   -0.6435   10.6063   -7.5823 H   0  0  0  0  0  0  0  0  0  0  0  0
    1.4419   14.3470   -6.0280 H   0  0  0  0  0  0  0  0  0  0  0  0
    0.1769   15.4918   -6.5897 H   0  0  0  0  0  0  0  0  0  0  0  0
    0.1266   14.8499   -4.9128 H   0  0  0  0  0  0  0  0  0  0  0  0
   -3.6551   12.0930  -10.4106 H   0  0  0  0  0  0  0  0  0  0  0  0
   -3.3293   11.7354  -12.1405 H   0  0  0  0  0  0  0  0  0  0  0  0
   -1.5662   13.3629  -12.1645 H   0  0  0  0  0  0  0  0  0  0  0  0
   -3.1063   14.9918  -12.9976 H   0  0  0  0  0  0  0  0  0  0  0  0
   -3.4165   15.5738  -11.3267 H   0  0  0  0  0  0  0  0  0  0  0  0
   -1.0709   14.6005  -10.2803 H   0  0  0  0  0  0  0  0  0  0  0  0
  1  2  1  0  0  0  0
  1  4  1  0  0  0  0
  1 12  1  0  0  0  0
  2  6  2  0  0  0  0
  3  4  2  0  0  0  0
  3  5  1  0  0  0  0
  5  6  1  0  0  0  0
  5  9  2  0  0  0  0
  6  7  1  0  0  0  0
  7  8  1  0  0  0  0
  7 10  2  3  0  0  0
  8  9  1  0  0  0  0
 10 14  1  0  0  0  0
 11 12  1  0  0  0  0
 11 26  1  0  0  0  0
 11 28  1  0  0  0  0
 12 13  2  0  0  0  0
 14 15  2  0  0  0  0
 14 19  1  0  0  0  0
 15 16  1  0  0  0  0
 16 17  2  0  0  0  0
 17 18  1  0  0  0  0
 17 20  1  0  0  0  0
 18 19  2  0  0  0  0
 20 21  2  0  0  0  0
 20 24  1  0  0  0  0
 21 22  1  0  0  0  0
 22 23  1  0  0  0  0
 22 25  1  0  0  0  0
 23 24  2  0  0  0  0
 26 27  1  0  0  0  0
 27 28  1  0  0  0  0
 27 29  1  0  0  0  0
  1 30  1  0  0  0  0
  2 31  1  0  0  0  0
  3 32  1  0  0  0  0
  4 33  1  0  0  0  0
  8 34  1  0  0  0  0
 10 35  1  0  0  0  0
 15 36  1  0  0  0  0
 16 37  1  0  0  0  0
 18 38  1  0  0  0  0
 19 39  1  0  0  0  0
 21 40  1  0  0  0  0
 24 41  1  0  0  0  0
 25 42  1  0  0  0  0
 25 43  1  0  0  0  0
 25 44  1  0  0  0  0
 26 45  1  0  0  0  0
 26 46  1  0  0  0  0
 27 47  1  0  0  0  0
 28 48  1  0  0  0  0
 28 49  1  0  0  0  0
 29 50  1  0  0  0  0
M  END
> <Name>
35

> <IC50[uM]>
0.004

$$$$
35
  -OEChem-05192314333D
 Structure written by MMmdl.
 50 54  0     0  0  0  0  0  0999 V2000
   -6.3895   12.3678  -12.0373 C   0  0  0  0  0  0  0  0  0  0  0  0
   -6.4824   11.8098  -10.7511 C   0  0  0  0  0  0  0  0  0  0  0  0
   -7.7271   10.5745  -13.0290 C   0  0  0  0  0  0  0  0  0  0  0  0
   -7.0179   11.7711  -13.1287 C   0  0  0  0  0  0  0  0  0  0  0  0
   -7.8170   10.0145  -11.7522 C   0  0  0  0  0  0  0  0  0  0  0  0
   -7.2238   10.6236  -10.6024 C   0  0  0  0  0  0  0  0  0  0  0  0
   -7.6044    9.7508   -9.5065 C   0  0  0  0  0  0  0  0  0  0  0  0
   -8.2828    8.7443   -9.9813 N   0  0  0  0  0  0  0  0  0  0  0  0
   -8.4172    8.8704  -11.2949 N   0  0  0  0  0  0  0  0  0  0  0  0
   -7.3303    9.8854   -8.0203 C   0  0  0  0  0  0  0  0  0  0  0  0
   -4.3418   13.6528  -11.7950 N   0  0  0  0  0  0  0  0  0  0  0  0
   -5.6106   13.6402  -12.2589 C   0  0  0  0  0  0  0  0  0  0  0  0
   -6.1045   14.5768  -12.8828 O   0  0  0  0  0  0  0  0  0  0  0  0
   -5.9605   10.4846   -7.7337 C   0  0  0  0  0  0  0  0  0  0  0  0
   -4.8084    9.7674   -8.0514 C   0  0  0  0  0  0  0  0  0  0  0  0
   -3.5547   10.3189   -7.8020 C   0  0  0  0  0  0  0  0  0  0  0  0
   -3.4471   11.5931   -7.2348 C   0  0  0  0  0  0  0  0  0  0  0  0
   -4.6026   12.3073   -6.9145 C   0  0  0  0  0  0  0  0  0  0  0  0
   -5.8562   11.7556   -7.1614 C   0  0  0  0  0  0  0  0  0  0  0  0
   -2.1021   12.1835   -6.9708 C   0  0  0  0  0  0  0  0  0  0  0  0
   -1.7710   13.4390   -6.4702 C   0  0  0  0  0  0  0  0  0  0  0  0
   -0.4354   13.4950   -6.4103 N   0  0  0  0  0  0  0  0  0  0  0  0
    0.1709   12.4112   -6.8070 N   0  0  0  0  0  0  0  0  0  0  0  0
   -0.8030   11.5943   -7.1763 C   0  0  0  0  0  0  0  0  0  0  0  0
    0.3771   14.6141   -5.9576 C   0  0  0  0  0  0  0  0  0  0  0  0
   -3.4422   12.5360  -11.3947 C   0  0  0  0  0  0  0  0  0  0  0  0
   -2.3230   13.6139  -11.4067 C   0  0  0  0  0  0  0  0  0  0  0  0
   -3.2958   14.6820  -11.9593 C   0  0  0  0  0  0  0  0  0  0  0  0
   -1.7380   13.9356  -10.1565 O   0  0  0  0  0  0  0  0  0  0  0  0
   -6.0005   12.2762   -9.9046 H   0  0  0  0  0  0  0  0  0  0  0  0
   -8.7506   10.7604  -13.3866 H   0  0  0  0  0  0  0  0  0  0  0  0
   -7.2377    9.8389  -13.6842 H   0  0  0  0  0  0  0  0  0  0  0  0
   -6.9530   12.2555  -14.0918 H   0  0  0  0  0  0  0  0  0  0  0  0
   -8.6477    7.9894   -9.4364 H   0  0  0  0  0  0  0  0  0  0  0  0
   -8.0288    9.5892   -7.2517 H   0  0  0  0  0  0  0  0  0  0  0  0
   -4.8882    8.7841   -8.4909 H   0  0  0  0  0  0  0  0  0  0  0  0
   -2.6627    9.7615   -8.0471 H   0  0  0  0  0  0  0  0  0  0  0  0
   -4.5238   13.2903   -6.4741 H   0  0  0  0  0  0  0  0  0  0  0  0
   -6.7487   12.3097   -6.9107 H   0  0  0  0  0  0  0  0  0  0  0  0
   -2.4606   14.2195   -6.1845 H   0  0  0  0  0  0  0  0  0  0  0  0
   -0.6435   10.6063   -7.5823 H   0  0  0  0  0  0  0  0  0  0  0  0
    1.4419   14.3470   -6.0280 H   0  0  0  0  0  0  0  0  0  0  0  0
    0.1769   15.4918   -6.5897 H   0  0  0  0  0  0  0  0  0  0  0  0
    0.1266   14.8499   -4.9128 H   0  0  0  0  0  0  0  0  0  0  0  0
   -3.6551   12.0930  -10.4106 H   0  0  0  0  0  0  0  0  0  0  0  0
   -3.3293   11.7354  -12.1405 H   0  0  0  0  0  0  0  0  0  0  0  0
   -1.5662   13.3629  -12.1645 H   0  0  0  0  0  0  0  0  0  0  0  0
   -3.1063   14.9918  -12.9976 H   0  0  0  0  0  0  0  0  0  0  0  0
   -3.4165   15.5738  -11.3267 H   0  0  0  0  0  0  0  0  0  0  0  0
   -1.0709   14.6005  -10.2803 H   0  0  0  0  0  0  0  0  0  0  0  0
  1  2  1  0  0  0  0
  1  4  2  0  0  0  0
  1 12  1  0  0  0  0
  2  6  2  0  0  0  0
  3  4  1  0  0  0  0
  3  5  1  0  0  0  0
  5  6  1  0  0  0  0
  5  9  2  0  0  0  0
  6  7  1  0  0  0  0
  7  8  1  0  0  0  0
  7 10  2  3  0  0  0
  8  9  1  0  0  0  0
 10 14  1  0  0  0  0
 11 12  1  0  0  0  0
 11 26  1  0  0  0  0
 11 28  1  0  0  0  0
 12 13  2  0  0  0  0
 14 15  2  0  0  0  0
 14 19  1  0  0  0  0
 15 16  1  0  0  0  0
 16 17  2  0  0  0  0
 17 18  1  0  0  0  0
 17 20  1  0  0  0  0
 18 19  2  0  0  0  0
 20 21  2  0  0  0  0
 20 24  1  0  0  0  0
 21 22  1  0  0  0  0
 22 23  1  0  0  0  0
 22 25  1  0  0  0  0
 23 24  2  0  0  0  0
 26 27  1  0  0  0  0
 27 28  1  0  0  0  0
 27 29  1  0  0  0  0
  2 30  1  0  0  0  0
  3 31  1  0  0  0  0
  3 32  1  0  0  0  0
  4 33  1  0  0  0  0
  8 34  1  0  0  0  0
 10 35  1  0  0  0  0
 15 36  1  0  0  0  0
 16 37  1  0  0  0  0
 18 38  1  0  0  0  0
 19 39  1  0  0  0  0
 21 40  1  0  0  0  0
 24 41  1  0  0  0  0
 25 42  1  0  0  0  0
 25 43  1  0  0  0  0
 25 44  1  0  0  0  0
 26 45  1  0  0  0  0
 26 46  1  0  0  0  0
 27 47  1  0  0  0  0
 28 48  1  0  0  0  0
 28 49  1  0  0  0  0
 29 50  1  0  0  0  0
M  END
> <Name>
35

> <IC50[uM]>
0.004

$$$$
35
  -OEChem-05192314333D
 Structure written by MMmdl.
 50 54  0     1  0  0  0  0  0999 V2000
   -6.3895   12.3678  -12.0373 C   0  0  0  0  0  0  0  0  0  0  0  0
   -6.4824   11.8098  -10.7511 C   0  0  0  0  0  0  0  0  0  0  0  0
   -7.7271   10.5745  -13.0290 C   0  0  0  0  0  0  0  0  0  0  0  0
   -7.0179   11.7711  -13.1287 C   0  0  0  0  0  0  0  0  0  0  0  0
   -7.8170   10.0145  -11.7522 C   0  0  0  0  0  0  0  0  0  0  0  0
   -7.2238   10.6236  -10.6024 C   0  0  0  0  0  0  0  0  0  0  0  0
   -7.6044    9.7508   -9.5065 C   0  0  0  0  0  0  0  0  0  0  0  0
   -8.2828    8.7443   -9.9813 N   0  0  0  0  0  0  0  0  0  0  0  0
   -8.4172    8.8704  -11.2949 N   0  0  0  0  0  0  0  0  0  0  0  0
   -7.3303    9.8854   -8.0203 C   0  0  0  0  0  0  0  0  0  0  0  0
   -4.3418   13.6528  -11.7950 N   0  0  0  0  0  0  0  0  0  0  0  0
   -5.6106   13.6402  -12.2589 C   0  0  0  0  0  0  0  0  0  0  0  0
   -6.1045   14.5768  -12.8828 O   0  0  0  0  0  0  0  0  0  0  0  0
   -5.9605   10.4846   -7.7337 C   0  0  0  0  0  0  0  0  0  0  0  0
   -4.8084    9.7674   -8.0514 C   0  0  0  0  0  0  0  0  0  0  0  0
   -3.5547   10.3189   -7.8020 C   0  0  0  0  0  0  0  0  0  0  0  0
   -3.4471   11.5931   -7.2348 C   0  0  0  0  0  0  0  0  0  0  0  0
   -4.6026   12.3073   -6.9145 C   0  0  0  0  0  0  0  0  0  0  0  0
   -5.8562   11.7556   -7.1614 C   0  0  0  0  0  0  0  0  0  0  0  0
   -2.1021   12.1835   -6.9708 C   0  0  0  0  0  0  0  0  0  0  0  0
   -1.7710   13.4390   -6.4702 C   0  0  0  0  0  0  0  0  0  0  0  0
   -0.4354   13.4950   -6.4103 N   0  0  3  0  0  0  0  0  0  0  0  0
    0.1709   12.4112   -6.8070 N   0  0  0  0  0  0  0  0  0  0  0  0
   -0.8030   11.5943   -7.1763 C   0  0  0  0  0  0  0  0  0  0  0  0
    0.3771   14.6141   -5.9576 C   0  0  0  0  0  0  0  0  0  0  0  0
   -3.4422   12.5360  -11.3947 C   0  0  0  0  0  0  0  0  0  0  0  0
   -2.3230   13.6139  -11.4067 C   0  0  0  0  0  0  0  0  0  0  0  0
   -3.2958   14.6820  -11.9593 C   0  0  0  0  0  0  0  0  0  0  0  0
   -1.7380   13.9356  -10.1565 O   0  0  0  0  0  0  0  0  0  0  0  0
   -6.0005   12.2762   -9.9046 H   0  0  0  0  0  0  0  0  0  0  0  0
   -8.1812   10.1071  -13.8902 H   0  0  0  0  0  0  0  0  0  0  0  0
   -6.9530   12.2555  -14.0918 H   0  0  0  0  0  0  0  0  0  0  0  0
   -8.6477    7.9894   -9.4364 H   0  0  0  0  0  0  0  0  0  0  0  0
   -8.0288    9.5892   -7.2517 H   0  0  0  0  0  0  0  0  0  0  0  0
   -4.8882    8.7841   -8.4909 H   0  0  0  0  0  0  0  0  0  0  0  0
   -2.6627    9.7615   -8.0471 H   0  0  0  0  0  0  0  0  0  0  0  0
   -4.5238   13.2903   -6.4741 H   0  0  0  0  0  0  0  0  0  0  0  0
   -6.7487   12.3097   -6.9107 H   0  0  0  0  0  0  0  0  0  0  0  0
   -2.1527   14.2251   -7.1383 H   0  0  0  0  0  0  0  0  0  0  0  0
   -2.2003   13.5709   -5.4661 H   0  0  0  0  0  0  0  0  0  0  0  0
   -0.6435   10.6063   -7.5823 H   0  0  0  0  0  0  0  0  0  0  0  0
    1.4419   14.3470   -6.0280 H   0  0  0  0  0  0  0  0  0  0  0  0
    0.1769   15.4918   -6.5897 H   0  0  0  0  0  0  0  0  0  0  0  0
    0.1266   14.8499   -4.9128 H   0  0  0  0  0  0  0  0  0  0  0  0
   -3.6551   12.0930  -10.4106 H   0  0  0  0  0  0  0  0  0  0  0  0
   -3.3293   11.7354  -12.1405 H   0  0  0  0  0  0  0  0  0  0  0  0
   -1.5662   13.3629  -12.1645 H   0  0  0  0  0  0  0  0  0  0  0  0
   -3.1063   14.9918  -12.9976 H   0  0  0  0  0  0  0  0  0  0  0  0
   -3.4165   15.5738  -11.3267 H   0  0  0  0  0  0  0  0  0  0  0  0
   -1.0709   14.6005  -10.2803 H   0  0  0  0  0  0  0  0  0  0  0  0
  1  2  2  0  0  0  0
  1  4  1  0  0  0  0
  1 12  1  0  0  0  0
  2  6  1  0  0  0  0
  3  4  2  0  0  0  0
  3  5  1  0  0  0  0
  5  6  1  0  0  0  0
  5  9  2  0  0  0  0
  6  7  2  0  0  0  0
  7  8  1  0  0  0  0
  7 10  1  0  0  0  0
  8  9  1  0  0  0  0
 10 14  2  0  0  0  0
 11 12  1  0  0  0  0
 11 26  1  0  0  0  0
 11 28  1  0  0  0  0
 12 13  2  0  0  0  0
 14 15  1  0  0  0  0
 14 19  1  0  0  0  0
 15 16  2  0  0  0  0
 16 17  1  0  0  0  0
 17 18  1  0  0  0  0
 17 20  2  0  0  0  0
 18 19  2  0  0  0  0
 20 21  1  0  0  0  0
 20 24  1  0  0  0  0
 21 22  1  0  0  0  0
 22 23  1  0  0  0  0
 22 25  1  0  0  0  0
 23 24  2  0  0  0  0
 26 27  1  0  0  0  0
 27 28  1  0  0  0  0
 27 29  1  0  0  0  0
  2 30  1  0  0  0  0
  3 31  1  0  0  0  0
  4 32  1  0  0  0  0
  8 33  1  0  0  0  0
 10 34  1  0  0  0  0
 15 35  1  0  0  0  0
 16 36  1  0  0  0  0
 18 37  1  0  0  0  0
 19 38  1  0  0  0  0
 21 39  1  0  0  0  0
 21 40  1  0  0  0  0
 24 41  1  0  0  0  0
 25 42  1  0  0  0  0
 25 43  1  0  0  0  0
 25 44  1  0  0  0  0
 26 45  1  0  0  0  0
 26 46  1  0  0  0  0
 27 47  1  0  0  0  0
 28 48  1  0  0  0  0
 28 49  1  0  0  0  0
 29 50  1  0  0  0  0
M  END
> <Name>
35

> <IC50[uM]>
0.004

$$$$
35
  -OEChem-05192314333D
 Structure written by MMmdl.
 50 54  0     1  0  0  0  0  0999 V2000
   -6.3895   12.3678  -12.0373 C   0  0  0  0  0  0  0  0  0  0  0  0
   -6.4824   11.8098  -10.7511 C   0  0  0  0  0  0  0  0  0  0  0  0
   -7.7271   10.5745  -13.0290 C   0  0  0  0  0  0  0  0  0  0  0  0
   -7.0179   11.7711  -13.1287 C   0  0  0  0  0  0  0  0  0  0  0  0
   -7.8170   10.0145  -11.7522 C   0  0  0  0  0  0  0  0  0  0  0  0
   -7.2238   10.6236  -10.6024 C   0  0  0  0  0  0  0  0  0  0  0  0
   -7.6044    9.7508   -9.5065 C   0  0  0  0  0  0  0  0  0  0  0  0
   -8.2828    8.7443   -9.9813 N   0  0  0  0  0  0  0  0  0  0  0  0
   -8.4172    8.8704  -11.2949 N   0  0  0  0  0  0  0  0  0  0  0  0
   -7.3303    9.8854   -8.0203 C   0  0  0  0  0  0  0  0  0  0  0  0
   -4.3418   13.6528  -11.7950 N   0  0  0  0  0  0  0  0  0  0  0  0
   -5.6106   13.6402  -12.2589 C   0  0  0  0  0  0  0  0  0  0  0  0
   -6.1045   14.5768  -12.8828 O   0  0  0  0  0  0  0  0  0  0  0  0
   -5.9605   10.4846   -7.7337 C   0  0  0  0  0  0  0  0  0  0  0  0
   -4.8084    9.7674   -8.0514 C   0  0  0  0  0  0  0  0  0  0  0  0
   -3.5547   10.3189   -7.8020 C   0  0  0  0  0  0  0  0  0  0  0  0
   -3.4471   11.5931   -7.2348 C   0  0  0  0  0  0  0  0  0  0  0  0
   -4.6026   12.3073   -6.9145 C   0  0  0  0  0  0  0  0  0  0  0  0
   -5.8562   11.7556   -7.1614 C   0  0  0  0  0  0  0  0  0  0  0  0
   -2.1021   12.1835   -6.9708 C   0  0  0  0  0  0  0  0  0  0  0  0
   -1.7710   13.4390   -6.4702 C   0  0  0  0  0  0  0  0  0  0  0  0
   -0.4354   13.4950   -6.4103 N   0  0  3  0  0  0  0  0  0  0  0  0
    0.1709   12.4112   -6.8070 N   0  0  0  0  0  0  0  0  0  0  0  0
   -0.8030   11.5943   -7.1763 C   0  0  0  0  0  0  0  0  0  0  0  0
    0.3771   14.6141   -5.9576 C   0  0  0  0  0  0  0  0  0  0  0  0
   -3.4422   12.5360  -11.3947 C   0  0  0  0  0  0  0  0  0  0  0  0
   -2.3230   13.6139  -11.4067 C   0  0  0  0  0  0  0  0  0  0  0  0
   -3.2958   14.6820  -11.9593 C   0  0  0  0  0  0  0  0  0  0  0  0
   -1.7380   13.9356  -10.1565 O   0  0  0  0  0  0  0  0  0  0  0  0
   -6.0005   12.2762   -9.9046 H   0  0  0  0  0  0  0  0  0  0  0  0
   -8.1812   10.1071  -13.8902 H   0  0  0  0  0  0  0  0  0  0  0  0
   -6.9530   12.2555  -14.0918 H   0  0  0  0  0  0  0  0  0  0  0  0
   -8.8959    8.2138  -11.8778 H   0  0  0  0  0  0  0  0  0  0  0  0
   -8.0288    9.5892   -7.2517 H   0  0  0  0  0  0  0  0  0  0  0  0
   -4.8882    8.7841   -8.4909 H   0  0  0  0  0  0  0  0  0  0  0  0
   -2.6627    9.7615   -8.0471 H   0  0  0  0  0  0  0  0  0  0  0  0
   -4.5238   13.2903   -6.4741 H   0  0  0  0  0  0  0  0  0  0  0  0
   -6.7487   12.3097   -6.9107 H   0  0  0  0  0  0  0  0  0  0  0  0
   -2.1527   14.2251   -7.1383 H   0  0  0  0  0  0  0  0  0  0  0  0
   -2.2003   13.5709   -5.4661 H   0  0  0  0  0  0  0  0  0  0  0  0
   -0.6435   10.6063   -7.5823 H   0  0  0  0  0  0  0  0  0  0  0  0
    1.4419   14.3470   -6.0280 H   0  0  0  0  0  0  0  0  0  0  0  0
    0.1769   15.4918   -6.5897 H   0  0  0  0  0  0  0  0  0  0  0  0
    0.1266   14.8499   -4.9128 H   0  0  0  0  0  0  0  0  0  0  0  0
   -3.6551   12.0930  -10.4106 H   0  0  0  0  0  0  0  0  0  0  0  0
   -3.3293   11.7354  -12.1405 H   0  0  0  0  0  0  0  0  0  0  0  0
   -1.5662   13.3629  -12.1645 H   0  0  0  0  0  0  0  0  0  0  0  0
   -3.1063   14.9918  -12.9976 H   0  0  0  0  0  0  0  0  0  0  0  0
   -3.4165   15.5738  -11.3267 H   0  0  0  0  0  0  0  0  0  0  0  0
   -1.0709   14.6005  -10.2803 H   0  0  0  0  0  0  0  0  0  0  0  0
  1  2  2  0  0  0  0
  1  4  1  0  0  0  0
  1 12  1  0  0  0  0
  2  6  1  0  0  0  0
  3  4  2  0  0  0  0
  3  5  1  0  0  0  0
  5  6  2  0  0  0  0
  5  9  1  0  0  0  0
  6  7  1  0  0  0  0
  7  8  2  0  0  0  0
  7 10  1  0  0  0  0
  8  9  1  0  0  0  0
 10 14  2  0  0  0  0
 11 12  1  0  0  0  0
 11 26  1  0  0  0  0
 11 28  1  0  0  0  0
 12 13  2  0  0  0  0
 14 15  1  0  0  0  0
 14 19  1  0  0  0  0
 15 16  2  0  0  0  0
 16 17  1  0  0  0  0
 17 18  1  0  0  0  0
 17 20  2  0  0  0  0
 18 19  2  0  0  0  0
 20 21  1  0  0  0  0
 20 24  1  0  0  0  0
 21 22  1  0  0  0  0
 22 23  1  0  0  0  0
 22 25  1  0  0  0  0
 23 24  2  0  0  0  0
 26 27  1  0  0  0  0
 27 28  1  0  0  0  0
 27 29  1  0  0  0  0
  2 30  1  0  0  0  0
  3 31  1  0  0  0  0
  4 32  1  0  0  0  0
  9 33  1  0  0  0  0
 10 34  1  0  0  0  0
 15 35  1  0  0  0  0
 16 36  1  0  0  0  0
 18 37  1  0  0  0  0
 19 38  1  0  0  0  0
 21 39  1  0  0  0  0
 21 40  1  0  0  0  0
 24 41  1  0  0  0  0
 25 42  1  0  0  0  0
 25 43  1  0  0  0  0
 25 44  1  0  0  0  0
 26 45  1  0  0  0  0
 26 46  1  0  0  0  0
 27 47  1  0  0  0  0
 28 48  1  0  0  0  0
 28 49  1  0  0  0  0
 29 50  1  0  0  0  0
M  END
> <Name>
35

> <IC50[uM]>
0.004

$$$$
35
  -OEChem-05192314333D
 Structure written by MMmdl.
 50 54  0     0  0  0  0  0  0999 V2000
   -6.3895   12.3678  -12.0373 C   0  0  0  0  0  0  0  0  0  0  0  0
   -6.4824   11.8098  -10.7511 C   0  0  0  0  0  0  0  0  0  0  0  0
   -7.7271   10.5745  -13.0290 C   0  0  0  0  0  0  0  0  0  0  0  0
   -7.0179   11.7711  -13.1287 C   0  0  0  0  0  0  0  0  0  0  0  0
   -7.8170   10.0145  -11.7522 C   0  0  0  0  0  0  0  0  0  0  0  0
   -7.2238   10.6236  -10.6024 C   0  0  0  0  0  0  0  0  0  0  0  0
   -7.6044    9.7508   -9.5065 C   0  0  0  0  0  0  0  0  0  0  0  0
   -8.2828    8.7443   -9.9813 N   0  0  0  0  0  0  0  0  0  0  0  0
   -8.4172    8.8704  -11.2949 N   0  0  0  0  0  0  0  0  0  0  0  0
   -7.3303    9.8854   -8.0203 C   0  0  0  0  0  0  0  0  0  0  0  0
   -4.3418   13.6528  -11.7950 N   0  0  0  0  0  0  0  0  0  0  0  0
   -5.6106   13.6402  -12.2589 C   0  0  0  0  0  0  0  0  0  0  0  0
   -6.1045   14.5768  -12.8828 O   0  0  0  0  0  0  0  0  0  0  0  0
   -5.9605   10.4846   -7.7337 C   0  0  0  0  0  0  0  0  0  0  0  0
   -4.8084    9.7674   -8.0514 C   0  0  0  0  0  0  0  0  0  0  0  0
   -3.5547   10.3189   -7.8020 C   0  0  0  0  0  0  0  0  0  0  0  0
   -3.4471   11.5931   -7.2348 C   0  0  0  0  0  0  0  0  0  0  0  0
   -4.6026   12.3073   -6.9145 C   0  0  0  0  0  0  0  0  0  0  0  0
   -5.8562   11.7556   -7.1614 C   0  0  0  0  0  0  0  0  0  0  0  0
   -2.1021   12.1835   -6.9708 C   0  0  0  0  0  0  0  0  0  0  0  0
   -1.7710   13.4390   -6.4702 C   0  0  0  0  0  0  0  0  0  0  0  0
   -0.4354   13.4950   -6.4103 N   0  0  0  0  0  0  0  0  0  0  0  0
    0.1709   12.4112   -6.8070 N   0  0  0  0  0  0  0  0  0  0  0  0
   -0.8030   11.5943   -7.1763 C   0  0  0  0  0  0  0  0  0  0  0  0
    0.3771   14.6141   -5.9576 C   0  0  0  0  0  0  0  0  0  0  0  0
   -3.4422   12.5360  -11.3947 C   0  0  0  0  0  0  0  0  0  0  0  0
   -2.3230   13.6139  -11.4067 C   0  0  0  0  0  0  0  0  0  0  0  0
   -3.2958   14.6820  -11.9593 C   0  0  0  0  0  0  0  0  0  0  0  0
   -1.7380   13.9356  -10.1565 O   0  0  0  0  0  0  0  0  0  0  0  0
   -6.0005   12.2762   -9.9046 H   0  0  0  0  0  0  0  0  0  0  0  0
   -8.1812   10.1071  -13.8902 H   0  0  0  0  0  0  0  0  0  0  0  0
   -6.9530   12.2555  -14.0918 H   0  0  0  0  0  0  0  0  0  0  0  0
   -8.6477    7.9894   -9.4364 H   0  0  0  0  0  0  0  0  0  0  0  0
   -8.0288    9.5892   -7.2517 H   0  0  0  0  0  0  0  0  0  0  0  0
   -4.8882    8.7841   -8.4909 H   0  0  0  0  0  0  0  0  0  0  0  0
   -2.6627    9.7615   -8.0471 H   0  0  0  0  0  0  0  0  0  0  0  0
   -3.4475   12.0413   -8.2394 H   0  0  0  0  0  0  0  0  0  0  0  0
   -4.5238   13.2903   -6.4741 H   0  0  0  0  0  0  0  0  0  0  0  0
   -6.7487   12.3097   -6.9107 H   0  0  0  0  0  0  0  0  0  0  0  0
   -2.4606   14.2195   -6.1845 H   0  0  0  0  0  0  0  0  0  0  0  0
   -0.6435   10.6063   -7.5823 H   0  0  0  0  0  0  0  0  0  0  0  0
    1.4419   14.3470   -6.0280 H   0  0  0  0  0  0  0  0  0  0  0  0
    0.1769   15.4918   -6.5897 H   0  0  0  0  0  0  0  0  0  0  0  0
    0.1266   14.8499   -4.9128 H   0  0  0  0  0  0  0  0  0  0  0  0
   -3.6551   12.0930  -10.4106 H   0  0  0  0  0  0  0  0  0  0  0  0
   -3.3293   11.7354  -12.1405 H   0  0  0  0  0  0  0  0  0  0  0  0
   -1.5662   13.3629  -12.1645 H   0  0  0  0  0  0  0  0  0  0  0  0
   -3.1063   14.9918  -12.9976 H   0  0  0  0  0  0  0  0  0  0  0  0
   -3.4165   15.5738  -11.3267 H   0  0  0  0  0  0  0  0  0  0  0  0
   -1.0709   14.6005  -10.2803 H   0  0  0  0  0  0  0  0  0  0  0  0
  1  2  2  0  0  0  0
  1  4  1  0  0  0  0
  1 12  1  0  0  0  0
  2  6  1  0  0  0  0
  3  4  2  0  0  0  0
  3  5  1  0  0  0  0
  5  6  1  0  0  0  0
  5  9  2  0  0  0  0
  6  7  2  0  0  0  0
  7  8  1  0  0  0  0
  7 10  1  0  0  0  0
  8  9  1  0  0  0  0
 10 14  2  0  0  0  0
 11 12  1  0  0  0  0
 11 26  1  0  0  0  0
 11 28  1  0  0  0  0
 12 13  2  0  0  0  0
 14 15  1  0  0  0  0
 14 19  1  0  0  0  0
 15 16  2  0  0  0  0
 16 17  1  0  0  0  0
 17 18  1  0  0  0  0
 17 20  1  0  0  0  0
 18 19  2  0  0  0  0
 20 21  2  0  0  0  0
 20 24  1  0  0  0  0
 21 22  1  0  0  0  0
 22 23  1  0  0  0  0
 22 25  1  0  0  0  0
 23 24  2  0  0  0  0
 26 27  1  0  0  0  0
 27 28  1  0  0  0  0
 27 29  1  0  0  0  0
  2 30  1  0  0  0  0
  3 31  1  0  0  0  0
  4 32  1  0  0  0  0
  8 33  1  0  0  0  0
 10 34  1  0  0  0  0
 15 35  1  0  0  0  0
 16 36  1  0  0  0  0
 17 37  1  0  0  0  0
 18 38  1  0  0  0  0
 19 39  1  0  0  0  0
 21 40  1  0  0  0  0
 24 41  1  0  0  0  0
 25 42  1  0  0  0  0
 25 43  1  0  0  0  0
 25 44  1  0  0  0  0
 26 45  1  0  0  0  0
 26 46  1  0  0  0  0
 27 47  1  0  0  0  0
 28 48  1  0  0  0  0
 28 49  1  0  0  0  0
 29 50  1  0  0  0  0
M  END
> <Name>
35

> <IC50[uM]>
0.004

$$$$
35
  -OEChem-05192314333D
 Structure written by MMmdl.
 50 54  0     0  0  0  0  0  0999 V2000
   -6.3895   12.3678  -12.0373 C   0  0  0  0  0  0  0  0  0  0  0  0
   -6.4824   11.8098  -10.7511 C   0  0  0  0  0  0  0  0  0  0  0  0
   -7.7271   10.5745  -13.0290 C   0  0  0  0  0  0  0  0  0  0  0  0
   -7.0179   11.7711  -13.1287 C   0  0  0  0  0  0  0  0  0  0  0  0
   -7.8170   10.0145  -11.7522 C   0  0  0  0  0  0  0  0  0  0  0  0
   -7.2238   10.6236  -10.6024 C   0  0  0  0  0  0  0  0  0  0  0  0
   -7.6044    9.7508   -9.5065 C   0  0  0  0  0  0  0  0  0  0  0  0
   -8.2828    8.7443   -9.9813 N   0  0  0  0  0  0  0  0  0  0  0  0
   -8.4172    8.8704  -11.2949 N   0  0  0  0  0  0  0  0  0  0  0  0
   -7.3303    9.8854   -8.0203 C   0  0  0  0  0  0  0  0  0  0  0  0
   -4.3418   13.6528  -11.7950 N   0  0  0  0  0  0  0  0  0  0  0  0
   -5.6106   13.6402  -12.2589 C   0  0  0  0  0  0  0  0  0  0  0  0
   -6.1045   14.5768  -12.8828 O   0  0  0  0  0  0  0  0  0  0  0  0
   -5.9605   10.4846   -7.7337 C   0  0  0  0  0  0  0  0  0  0  0  0
   -4.8084    9.7674   -8.0514 C   0  0  0  0  0  0  0  0  0  0  0  0
   -3.5547   10.3189   -7.8020 C   0  0  0  0  0  0  0  0  0  0  0  0
   -3.4471   11.5931   -7.2348 C   0  0  0  0  0  0  0  0  0  0  0  0
   -4.6026   12.3073   -6.9145 C   0  0  0  0  0  0  0  0  0  0  0  0
   -5.8562   11.7556   -7.1614 C   0  0  0  0  0  0  0  0  0  0  0  0
   -2.1021   12.1835   -6.9708 C   0  0  0  0  0  0  0  0  0  0  0  0
   -1.7710   13.4390   -6.4702 C   0  0  0  0  0  0  0  0  0  0  0  0
   -0.4354   13.4950   -6.4103 N   0  0  0  0  0  0  0  0  0  0  0  0
    0.1709   12.4112   -6.8070 N   0  0  0  0  0  0  0  0  0  0  0  0
   -0.8030   11.5943   -7.1763 C   0  0  0  0  0  0  0  0  0  0  0  0
    0.3771   14.6141   -5.9576 C   0  0  0  0  0  0  0  0  0  0  0  0
   -3.4422   12.5360  -11.3947 C   0  0  0  0  0  0  0  0  0  0  0  0
   -2.3230   13.6139  -11.4067 C   0  0  0  0  0  0  0  0  0  0  0  0
   -3.2958   14.6820  -11.9593 C   0  0  0  0  0  0  0  0  0  0  0  0
   -1.7380   13.9356  -10.1565 O   0  0  0  0  0  0  0  0  0  0  0  0
   -6.0005   12.2762   -9.9046 H   0  0  0  0  0  0  0  0  0  0  0  0
   -8.1812   10.1071  -13.8902 H   0  0  0  0  0  0  0  0  0  0  0  0
   -6.9530   12.2555  -14.0918 H   0  0  0  0  0  0  0  0  0  0  0  0
   -8.8959    8.2138  -11.8778 H   0  0  0  0  0  0  0  0  0  0  0  0
   -8.0288    9.5892   -7.2517 H   0  0  0  0  0  0  0  0  0  0  0  0
   -4.8882    8.7841   -8.4909 H   0  0  0  0  0  0  0  0  0  0  0  0
   -2.6627    9.7615   -8.0471 H   0  0  0  0  0  0  0  0  0  0  0  0
   -3.4475   12.0413   -8.2394 H   0  0  0  0  0  0  0  0  0  0  0  0
   -4.5238   13.2903   -6.4741 H   0  0  0  0  0  0  0  0  0  0  0  0
   -6.7487   12.3097   -6.9107 H   0  0  0  0  0  0  0  0  0  0  0  0
   -2.4606   14.2195   -6.1845 H   0  0  0  0  0  0  0  0  0  0  0  0
   -0.6435   10.6063   -7.5823 H   0  0  0  0  0  0  0  0  0  0  0  0
    1.4419   14.3470   -6.0280 H   0  0  0  0  0  0  0  0  0  0  0  0
    0.1769   15.4918   -6.5897 H   0  0  0  0  0  0  0  0  0  0  0  0
    0.1266   14.8499   -4.9128 H   0  0  0  0  0  0  0  0  0  0  0  0
   -3.6551   12.0930  -10.4106 H   0  0  0  0  0  0  0  0  0  0  0  0
   -3.3293   11.7354  -12.1405 H   0  0  0  0  0  0  0  0  0  0  0  0
   -1.5662   13.3629  -12.1645 H   0  0  0  0  0  0  0  0  0  0  0  0
   -3.1063   14.9918  -12.9976 H   0  0  0  0  0  0  0  0  0  0  0  0
   -3.4165   15.5738  -11.3267 H   0  0  0  0  0  0  0  0  0  0  0  0
   -1.0709   14.6005  -10.2803 H   0  0  0  0  0  0  0  0  0  0  0  0
  1  2  2  0  0  0  0
  1  4  1  0  0  0  0
  1 12  1  0  0  0  0
  2  6  1  0  0  0  0
  3  4  2  0  0  0  0
  3  5  1  0  0  0  0
  5  6  2  0  0  0  0
  5  9  1  0  0  0  0
  6  7  1  0  0  0  0
  7  8  2  0  0  0  0
  7 10  1  0  0  0  0
  8  9  1  0  0  0  0
 10 14  2  0  0  0  0
 11 12  1  0  0  0  0
 11 26  1  0  0  0  0
 11 28  1  0  0  0  0
 12 13  2  0  0  0  0
 14 15  1  0  0  0  0
 14 19  1  0  0  0  0
 15 16  2  0  0  0  0
 16 17  1  0  0  0  0
 17 18  1  0  0  0  0
 17 20  1  0  0  0  0
 18 19  2  0  0  0  0
 20 21  2  0  0  0  0
 20 24  1  0  0  0  0
 21 22  1  0  0  0  0
 22 23  1  0  0  0  0
 22 25  1  0  0  0  0
 23 24  2  0  0  0  0
 26 27  1  0  0  0  0
 27 28  1  0  0  0  0
 27 29  1  0  0  0  0
  2 30  1  0  0  0  0
  3 31  1  0  0  0  0
  4 32  1  0  0  0  0
  9 33  1  0  0  0  0
 10 34  1  0  0  0  0
 15 35  1  0  0  0  0
 16 36  1  0  0  0  0
 17 37  1  0  0  0  0
 18 38  1  0  0  0  0
 19 39  1  0  0  0  0
 21 40  1  0  0  0  0
 24 41  1  0  0  0  0
 25 42  1  0  0  0  0
 25 43  1  0  0  0  0
 25 44  1  0  0  0  0
 26 45  1  0  0  0  0
 26 46  1  0  0  0  0
 27 47  1  0  0  0  0
 28 48  1  0  0  0  0
 28 49  1  0  0  0  0
 29 50  1  0  0  0  0
M  END
> <Name>
35

> <IC50[uM]>
0.004

$$$$
35
  -OEChem-05192314333D
 Structure written by MMmdl.
 50 54  0     0  0  0  0  0  0999 V2000
   -6.3895   12.3678  -12.0373 C   0  0  0  0  0  0  0  0  0  0  0  0
   -6.4824   11.8098  -10.7511 C   0  0  0  0  0  0  0  0  0  0  0  0
   -7.7271   10.5745  -13.0290 C   0  0  0  0  0  0  0  0  0  0  0  0
   -7.0179   11.7711  -13.1287 C   0  0  0  0  0  0  0  0  0  0  0  0
   -7.8170   10.0145  -11.7522 C   0  0  0  0  0  0  0  0  0  0  0  0
   -7.2238   10.6236  -10.6024 C   0  0  0  0  0  0  0  0  0  0  0  0
   -7.6044    9.7508   -9.5065 C   0  0  0  0  0  0  0  0  0  0  0  0
   -8.2828    8.7443   -9.9813 N   0  0  0  0  0  0  0  0  0  0  0  0
   -8.4172    8.8704  -11.2949 N   0  0  0  0  0  0  0  0  0  0  0  0
   -7.3303    9.8854   -8.0203 C   0  0  0  0  0  0  0  0  0  0  0  0
   -4.3418   13.6528  -11.7950 N   0  0  0  0  0  0  0  0  0  0  0  0
   -5.6106   13.6402  -12.2589 C   0  0  0  0  0  0  0  0  0  0  0  0
   -6.1045   14.5768  -12.8828 O   0  0  0  0  0  0  0  0  0  0  0  0
   -5.9605   10.4846   -7.7337 C   0  0  0  0  0  0  0  0  0  0  0  0
   -4.8084    9.7674   -8.0514 C   0  0  0  0  0  0  0  0  0  0  0  0
   -3.5547   10.3189   -7.8020 C   0  0  0  0  0  0  0  0  0  0  0  0
   -3.4471   11.5931   -7.2348 C   0  0  0  0  0  0  0  0  0  0  0  0
   -4.6026   12.3073   -6.9145 C   0  0  0  0  0  0  0  0  0  0  0  0
   -5.8562   11.7556   -7.1614 C   0  0  0  0  0  0  0  0  0  0  0  0
   -2.1021   12.1835   -6.9708 C   0  0  0  0  0  0  0  0  0  0  0  0
   -1.7710   13.4390   -6.4702 C   0  0  0  0  0  0  0  0  0  0  0  0
   -0.4354   13.4950   -6.4103 N   0  0  0  0  0  0  0  0  0  0  0  0
    0.1709   12.4112   -6.8070 N   0  0  0  0  0  0  0  0  0  0  0  0
   -0.8030   11.5943   -7.1763 C   0  0  0  0  0  0  0  0  0  0  0  0
    0.3771   14.6141   -5.9576 C   0  0  0  0  0  0  0  0  0  0  0  0
   -3.4422   12.5360  -11.3947 C   0  0  0  0  0  0  0  0  0  0  0  0
   -2.3230   13.6139  -11.4067 C   0  0  0  0  0  0  0  0  0  0  0  0
   -3.2958   14.6820  -11.9593 C   0  0  0  0  0  0  0  0  0  0  0  0
   -1.7380   13.9356  -10.1565 O   0  0  0  0  0  0  0  0  0  0  0  0
   -6.0005   12.2762   -9.9046 H   0  0  0  0  0  0  0  0  0  0  0  0
   -8.1812   10.1071  -13.8902 H   0  0  0  0  0  0  0  0  0  0  0  0
   -6.9530   12.2555  -14.0918 H   0  0  0  0  0  0  0  0  0  0  0  0
   -8.6477    7.9894   -9.4364 H   0  0  0  0  0  0  0  0  0  0  0  0
   -8.0288    9.5892   -7.2517 H   0  0  0  0  0  0  0  0  0  0  0  0
   -4.8882    8.7841   -8.4909 H   0  0  0  0  0  0  0  0  0  0  0  0
   -2.6627    9.7615   -8.0471 H   0  0  0  0  0  0  0  0  0  0  0  0
   -4.5238   13.2903   -6.4741 H   0  0  0  0  0  0  0  0  0  0  0  0
   -6.3821   12.4502   -7.8329 H   0  0  0  0  0  0  0  0  0  0  0  0
   -6.3800   11.7126   -6.1951 H   0  0  0  0  0  0  0  0  0  0  0  0
   -2.4606   14.2195   -6.1845 H   0  0  0  0  0  0  0  0  0  0  0  0
   -0.6435   10.6063   -7.5823 H   0  0  0  0  0  0  0  0  0  0  0  0
    1.4419   14.3470   -6.0280 H   0  0  0  0  0  0  0  0  0  0  0  0
    0.1769   15.4918   -6.5897 H   0  0  0  0  0  0  0  0  0  0  0  0
    0.1266   14.8499   -4.9128 H   0  0  0  0  0  0  0  0  0  0  0  0
   -3.6551   12.0930  -10.4106 H   0  0  0  0  0  0  0  0  0  0  0  0
   -3.3293   11.7354  -12.1405 H   0  0  0  0  0  0  0  0  0  0  0  0
   -1.5662   13.3629  -12.1645 H   0  0  0  0  0  0  0  0  0  0  0  0
   -3.1063   14.9918  -12.9976 H   0  0  0  0  0  0  0  0  0  0  0  0
   -3.4165   15.5738  -11.3267 H   0  0  0  0  0  0  0  0  0  0  0  0
   -1.0709   14.6005  -10.2803 H   0  0  0  0  0  0  0  0  0  0  0  0
  1  2  2  0  0  0  0
  1  4  1  0  0  0  0
  1 12  1  0  0  0  0
  2  6  1  0  0  0  0
  3  4  2  0  0  0  0
  3  5  1  0  0  0  0
  5  6  1  0  0  0  0
  5  9  2  0  0  0  0
  6  7  2  0  0  0  0
  7  8  1  0  0  0  0
  7 10  1  0  0  0  0
  8  9  1  0  0  0  0
 10 14  2  3  0  0  0
 11 12  1  0  0  0  0
 11 26  1  0  0  0  0
 11 28  1  0  0  0  0
 12 13  2  0  0  0  0
 14 15  1  0  0  0  0
 14 19  1  0  0  0  0
 15 16  2  0  0  0  0
 16 17  1  0  0  0  0
 17 18  2  0  0  0  0
 17 20  1  0  0  0  0
 18 19  1  0  0  0  0
 20 21  2  0  0  0  0
 20 24  1  0  0  0  0
 21 22  1  0  0  0  0
 22 23  1  0  0  0  0
 22 25  1  0  0  0  0
 23 24  2  0  0  0  0
 26 27  1  0  0  0  0
 27 28  1  0  0  0  0
 27 29  1  0  0  0  0
  2 30  1  0  0  0  0
  3 31  1  0  0  0  0
  4 32  1  0  0  0  0
  8 33  1  0  0  0  0
 10 34  1  0  0  0  0
 15 35  1  0  0  0  0
 16 36  1  0  0  0  0
 18 37  1  0  0  0  0
 19 38  1  0  0  0  0
 19 39  1  0  0  0  0
 21 40  1  0  0  0  0
 24 41  1  0  0  0  0
 25 42  1  0  0  0  0
 25 43  1  0  0  0  0
 25 44  1  0  0  0  0
 26 45  1  0  0  0  0
 26 46  1  0  0  0  0
 27 47  1  0  0  0  0
 28 48  1  0  0  0  0
 28 49  1  0  0  0  0
 29 50  1  0  0  0  0
M  END
> <Name>
35

> <IC50[uM]>
0.004

$$$$
35
  -OEChem-05192314333D
 Structure written by MMmdl.
 50 54  0     0  0  0  0  0  0999 V2000
   -6.3895   12.3678  -12.0373 C   0  0  0  0  0  0  0  0  0  0  0  0
   -6.4824   11.8098  -10.7511 C   0  0  0  0  0  0  0  0  0  0  0  0
   -7.7271   10.5745  -13.0290 C   0  0  0  0  0  0  0  0  0  0  0  0
   -7.0179   11.7711  -13.1287 C   0  0  0  0  0  0  0  0  0  0  0  0
   -7.8170   10.0145  -11.7522 C   0  0  0  0  0  0  0  0  0  0  0  0
   -7.2238   10.6236  -10.6024 C   0  0  0  0  0  0  0  0  0  0  0  0
   -7.6044    9.7508   -9.5065 C   0  0  0  0  0  0  0  0  0  0  0  0
   -8.2828    8.7443   -9.9813 N   0  0  0  0  0  0  0  0  0  0  0  0
   -8.4172    8.8704  -11.2949 N   0  0  0  0  0  0  0  0  0  0  0  0
   -7.3303    9.8854   -8.0203 C   0  0  0  0  0  0  0  0  0  0  0  0
   -4.3418   13.6528  -11.7950 N   0  0  0  0  0  0  0  0  0  0  0  0
   -5.6106   13.6402  -12.2589 C   0  0  0  0  0  0  0  0  0  0  0  0
   -6.1045   14.5768  -12.8828 O   0  0  0  0  0  0  0  0  0  0  0  0
   -5.9605   10.4846   -7.7337 C   0  0  0  0  0  0  0  0  0  0  0  0
   -4.8084    9.7674   -8.0514 C   0  0  0  0  0  0  0  0  0  0  0  0
   -3.5547   10.3189   -7.8020 C   0  0  0  0  0  0  0  0  0  0  0  0
   -3.4471   11.5931   -7.2348 C   0  0  0  0  0  0  0  0  0  0  0  0
   -4.6026   12.3073   -6.9145 C   0  0  0  0  0  0  0  0  0  0  0  0
   -5.8562   11.7556   -7.1614 C   0  0  0  0  0  0  0  0  0  0  0  0
   -2.1021   12.1835   -6.9708 C   0  0  0  0  0  0  0  0  0  0  0  0
   -1.7710   13.4390   -6.4702 C   0  0  0  0  0  0  0  0  0  0  0  0
   -0.4354   13.4950   -6.4103 N   0  0  0  0  0  0  0  0  0  0  0  0
    0.1709   12.4112   -6.8070 N   0  0  0  0  0  0  0  0  0  0  0  0
   -0.8030   11.5943   -7.1763 C   0  0  0  0  0  0  0  0  0  0  0  0
    0.3771   14.6141   -5.9576 C   0  0  0  0  0  0  0  0  0  0  0  0
   -3.4422   12.5360  -11.3947 C   0  0  0  0  0  0  0  0  0  0  0  0
   -2.3230   13.6139  -11.4067 C   0  0  0  0  0  0  0  0  0  0  0  0
   -3.2958   14.6820  -11.9593 C   0  0  0  0  0  0  0  0  0  0  0  0
   -1.7380   13.9356  -10.1565 O   0  0  0  0  0  0  0  0  0  0  0  0
   -6.0005   12.2762   -9.9046 H   0  0  0  0  0  0  0  0  0  0  0  0
   -8.1812   10.1071  -13.8902 H   0  0  0  0  0  0  0  0  0  0  0  0
   -6.9530   12.2555  -14.0918 H   0  0  0  0  0  0  0  0  0  0  0  0
   -8.8959    8.2138  -11.8778 H   0  0  0  0  0  0  0  0  0  0  0  0
   -8.0288    9.5892   -7.2517 H   0  0  0  0  0  0  0  0  0  0  0  0
   -4.8882    8.7841   -8.4909 H   0  0  0  0  0  0  0  0  0  0  0  0
   -2.6627    9.7615   -8.0471 H   0  0  0  0  0  0  0  0  0  0  0  0
   -4.5238   13.2903   -6.4741 H   0  0  0  0  0  0  0  0  0  0  0  0
   -6.3821   12.4502   -7.8329 H   0  0  0  0  0  0  0  0  0  0  0  0
   -6.3800   11.7126   -6.1951 H   0  0  0  0  0  0  0  0  0  0  0  0
   -2.4606   14.2195   -6.1845 H   0  0  0  0  0  0  0  0  0  0  0  0
   -0.6435   10.6063   -7.5823 H   0  0  0  0  0  0  0  0  0  0  0  0
    1.4419   14.3470   -6.0280 H   0  0  0  0  0  0  0  0  0  0  0  0
    0.1769   15.4918   -6.5897 H   0  0  0  0  0  0  0  0  0  0  0  0
    0.1266   14.8499   -4.9128 H   0  0  0  0  0  0  0  0  0  0  0  0
   -3.6551   12.0930  -10.4106 H   0  0  0  0  0  0  0  0  0  0  0  0
   -3.3293   11.7354  -12.1405 H   0  0  0  0  0  0  0  0  0  0  0  0
   -1.5662   13.3629  -12.1645 H   0  0  0  0  0  0  0  0  0  0  0  0
   -3.1063   14.9918  -12.9976 H   0  0  0  0  0  0  0  0  0  0  0  0
   -3.4165   15.5738  -11.3267 H   0  0  0  0  0  0  0  0  0  0  0  0
   -1.0709   14.6005  -10.2803 H   0  0  0  0  0  0  0  0  0  0  0  0
  1  2  2  0  0  0  0
  1  4  1  0  0  0  0
  1 12  1  0  0  0  0
  2  6  1  0  0  0  0
  3  4  2  0  0  0  0
  3  5  1  0  0  0  0
  5  6  2  0  0  0  0
  5  9  1  0  0  0  0
  6  7  1  0  0  0  0
  7  8  2  0  0  0  0
  7 10  1  0  0  0  0
  8  9  1  0  0  0  0
 10 14  2  3  0  0  0
 11 12  1  0  0  0  0
 11 26  1  0  0  0  0
 11 28  1  0  0  0  0
 12 13  2  0  0  0  0
 14 15  1  0  0  0  0
 14 19  1  0  0  0  0
 15 16  2  0  0  0  0
 16 17  1  0  0  0  0
 17 18  2  0  0  0  0
 17 20  1  0  0  0  0
 18 19  1  0  0  0  0
 20 21  2  0  0  0  0
 20 24  1  0  0  0  0
 21 22  1  0  0  0  0
 22 23  1  0  0  0  0
 22 25  1  0  0  0  0
 23 24  2  0  0  0  0
 26 27  1  0  0  0  0
 27 28  1  0  0  0  0
 27 29  1  0  0  0  0
  2 30  1  0  0  0  0
  3 31  1  0  0  0  0
  4 32  1  0  0  0  0
  9 33  1  0  0  0  0
 10 34  1  0  0  0  0
 15 35  1  0  0  0  0
 16 36  1  0  0  0  0
 18 37  1  0  0  0  0
 19 38  1  0  0  0  0
 19 39  1  0  0  0  0
 21 40  1  0  0  0  0
 24 41  1  0  0  0  0
 25 42  1  0  0  0  0
 25 43  1  0  0  0  0
 25 44  1  0  0  0  0
 26 45  1  0  0  0  0
 26 46  1  0  0  0  0
 27 47  1  0  0  0  0
 28 48  1  0  0  0  0
 28 49  1  0  0  0  0
 29 50  1  0  0  0  0
M  END
> <Name>
35

> <IC50[uM]>
0.004

$$$$
35
  -OEChem-05192314333D
 Structure written by MMmdl.
 50 54  0     1  0  0  0  0  0999 V2000
   -6.3895   12.3678  -12.0373 C   0  0  0  0  0  0  0  0  0  0  0  0
   -6.4824   11.8098  -10.7511 C   0  0  0  0  0  0  0  0  0  0  0  0
   -7.7271   10.5745  -13.0290 C   0  0  0  0  0  0  0  0  0  0  0  0
   -7.0179   11.7711  -13.1287 C   0  0  0  0  0  0  0  0  0  0  0  0
   -7.8170   10.0145  -11.7522 C   0  0  0  0  0  0  0  0  0  0  0  0
   -7.2238   10.6236  -10.6024 C   0  0  0  0  0  0  0  0  0  0  0  0
   -7.6044    9.7508   -9.5065 C   0  0  0  0  0  0  0  0  0  0  0  0
   -8.2828    8.7443   -9.9813 N   0  0  0  0  0  0  0  0  0  0  0  0
   -8.4172    8.8704  -11.2949 N   0  0  0  0  0  0  0  0  0  0  0  0
   -7.3303    9.8854   -8.0203 C   0  0  0  0  0  0  0  0  0  0  0  0
   -4.3418   13.6528  -11.7950 N   0  0  0  0  0  0  0  0  0  0  0  0
   -5.6106   13.6402  -12.2589 C   0  0  0  0  0  0  0  0  0  0  0  0
   -6.1045   14.5768  -12.8828 O   0  0  0  0  0  0  0  0  0  0  0  0
   -5.9605   10.4846   -7.7337 C   0  0  0  0  0  0  0  0  0  0  0  0
   -4.8084    9.7674   -8.0514 C   0  0  0  0  0  0  0  0  0  0  0  0
   -3.5547   10.3189   -7.8020 C   0  0  0  0  0  0  0  0  0  0  0  0
   -3.4471   11.5931   -7.2348 C   0  0  0  0  0  0  0  0  0  0  0  0
   -4.6026   12.3073   -6.9145 C   0  0  0  0  0  0  0  0  0  0  0  0
   -5.8562   11.7556   -7.1614 C   0  0  0  0  0  0  0  0  0  0  0  0
   -2.1021   12.1835   -6.9708 C   0  0  3  0  0  0  0  0  0  0  0  0
   -1.7710   13.4390   -6.4702 C   0  0  0  0  0  0  0  0  0  0  0  0
   -0.4354   13.4950   -6.4103 N   0  0  3  0  0  0  0  0  0  0  0  0
    0.1709   12.4112   -6.8070 N   0  0  0  0  0  0  0  0  0  0  0  0
   -0.8030   11.5943   -7.1763 C   0  0  0  0  0  0  0  0  0  0  0  0
    0.3771   14.6141   -5.9576 C   0  0  0  0  0  0  0  0  0  0  0  0
   -3.4422   12.5360  -11.3947 C   0  0  0  0  0  0  0  0  0  0  0  0
   -2.3230   13.6139  -11.4067 C   0  0  0  0  0  0  0  0  0  0  0  0
   -3.2958   14.6820  -11.9593 C   0  0  0  0  0  0  0  0  0  0  0  0
   -1.7380   13.9356  -10.1565 O   0  0  0  0  0  0  0  0  0  0  0  0
   -6.0005   12.2762   -9.9046 H   0  0  0  0  0  0  0  0  0  0  0  0
   -8.1812   10.1071  -13.8902 H   0  0  0  0  0  0  0  0  0  0  0  0
   -6.9530   12.2555  -14.0918 H   0  0  0  0  0  0  0  0  0  0  0  0
   -8.0288    9.5892   -7.2517 H   0  0  0  0  0  0  0  0  0  0  0  0
   -4.8882    8.7841   -8.4909 H   0  0  0  0  0  0  0  0  0  0  0  0
   -2.6627    9.7615   -8.0471 H   0  0  0  0  0  0  0  0  0  0  0  0
   -4.5238   13.2903   -6.4741 H   0  0  0  0  0  0  0  0  0  0  0  0
   -6.7487   12.3097   -6.9107 H   0  0  0  0  0  0  0  0  0  0  0  0
   -2.1246   11.7801   -5.9477 H   0  0  0  0  0  0  0  0  0  0  0  0
   -2.1527   14.2251   -7.1383 H   0  0  0  0  0  0  0  0  0  0  0  0
   -2.2003   13.5709   -5.4661 H   0  0  0  0  0  0  0  0  0  0  0  0
   -0.6435   10.6063   -7.5823 H   0  0  0  0  0  0  0  0  0  0  0  0
    1.4419   14.3470   -6.0280 H   0  0  0  0  0  0  0  0  0  0  0  0
    0.1769   15.4918   -6.5897 H   0  0  0  0  0  0  0  0  0  0  0  0
    0.1266   14.8499   -4.9128 H   0  0  0  0  0  0  0  0  0  0  0  0
   -3.6551   12.0930  -10.4106 H   0  0  0  0  0  0  0  0  0  0  0  0
   -3.3293   11.7354  -12.1405 H   0  0  0  0  0  0  0  0  0  0  0  0
   -1.5662   13.3629  -12.1645 H   0  0  0  0  0  0  0  0  0  0  0  0
   -3.1063   14.9918  -12.9976 H   0  0  0  0  0  0  0  0  0  0  0  0
   -3.4165   15.5738  -11.3267 H   0  0  0  0  0  0  0  0  0  0  0  0
   -1.0709   14.6005  -10.2803 H   0  0  0  0  0  0  0  0  0  0  0  0
  1  2  2  0  0  0  0
  1  4  1  0  0  0  0
  1 12  1  0  0  0  0
  2  6  1  0  0  0  0
  3  4  2  0  0  0  0
  3  5  1  0  0  0  0
  5  6  2  0  0  0  0
  5  9  1  0  0  0  0
  6  7  1  0  0  0  0
  7  8  1  0  0  0  0
  7 10  2  3  0  0  0
  8  9  2  0  0  0  0
 10 14  1  0  0  0  0
 11 12  1  0  0  0  0
 11 26  1  0  0  0  0
 11 28  1  0  0  0  0
 12 13  2  0  0  0  0
 14 15  2  0  0  0  0
 14 19  1  0  0  0  0
 15 16  1  0  0  0  0
 16 17  2  0  0  0  0
 17 18  1  0  0  0  0
 17 20  1  0  0  0  0
 18 19  2  0  0  0  0
 20 21  1  0  0  0  0
 20 24  1  0  0  0  0
 21 22  1  0  0  0  0
 22 23  1  0  0  0  0
 22 25  1  0  0  0  0
 23 24  2  0  0  0  0
 26 27  1  0  0  0  0
 27 28  1  0  0  0  0
 27 29  1  0  0  0  0
  2 30  1  0  0  0  0
  3 31  1  0  0  0  0
  4 32  1  0  0  0  0
 10 33  1  0  0  0  0
 15 34  1  0  0  0  0
 16 35  1  0  0  0  0
 18 36  1  0  0  0  0
 19 37  1  0  0  0  0
 20 38  1  0  0  0  0
 21 39  1  0  0  0  0
 21 40  1  0  0  0  0
 24 41  1  0  0  0  0
 25 42  1  0  0  0  0
 25 43  1  0  0  0  0
 25 44  1  0  0  0  0
 26 45  1  0  0  0  0
 26 46  1  0  0  0  0
 27 47  1  0  0  0  0
 28 48  1  0  0  0  0
 28 49  1  0  0  0  0
 29 50  1  0  0  0  0
M  END
> <Name>
35

> <IC50[uM]>
0.004

$$$$
35
  -OEChem-05192314333D
 Structure written by MMmdl.
 50 54  0     1  0  0  0  0  0999 V2000
   -6.3895   12.3678  -12.0373 C   0  0  0  0  0  0  0  0  0  0  0  0
   -6.4824   11.8098  -10.7511 C   0  0  0  0  0  0  0  0  0  0  0  0
   -7.7271   10.5745  -13.0290 C   0  0  0  0  0  0  0  0  0  0  0  0
   -7.0179   11.7711  -13.1287 C   0  0  0  0  0  0  0  0  0  0  0  0
   -7.8170   10.0145  -11.7522 C   0  0  0  0  0  0  0  0  0  0  0  0
   -7.2238   10.6236  -10.6024 C   0  0  0  0  0  0  0  0  0  0  0  0
   -7.6044    9.7508   -9.5065 C   0  0  0  0  0  0  0  0  0  0  0  0
   -8.2828    8.7443   -9.9813 N   0  0  0  0  0  0  0  0  0  0  0  0
   -8.4172    8.8704  -11.2949 N   0  0  0  0  0  0  0  0  0  0  0  0
   -7.3303    9.8854   -8.0203 C   0  0  0  0  0  0  0  0  0  0  0  0
   -4.3418   13.6528  -11.7950 N   0  0  0  0  0  0  0  0  0  0  0  0
   -5.6106   13.6402  -12.2589 C   0  0  0  0  0  0  0  0  0  0  0  0
   -6.1045   14.5768  -12.8828 O   0  0  0  0  0  0  0  0  0  0  0  0
   -5.9605   10.4846   -7.7337 C   0  0  0  0  0  0  0  0  0  0  0  0
   -4.8084    9.7674   -8.0514 C   0  0  0  0  0  0  0  0  0  0  0  0
   -3.5547   10.3189   -7.8020 C   0  0  0  0  0  0  0  0  0  0  0  0
   -3.4471   11.5931   -7.2348 C   0  0  0  0  0  0  0  0  0  0  0  0
   -4.6026   12.3073   -6.9145 C   0  0  0  0  0  0  0  0  0  0  0  0
   -5.8562   11.7556   -7.1614 C   0  0  0  0  0  0  0  0  0  0  0  0
   -2.1021   12.1835   -6.9708 C   0  0  0  0  0  0  0  0  0  0  0  0
   -1.7710   13.4390   -6.4702 C   0  0  0  0  0  0  0  0  0  0  0  0
   -0.4354   13.4950   -6.4103 N   0  0  3  0  0  0  0  0  0  0  0  0
    0.1709   12.4112   -6.8070 N   0  0  0  0  0  0  0  0  0  0  0  0
   -0.8030   11.5943   -7.1763 C   0  0  0  0  0  0  0  0  0  0  0  0
    0.3771   14.6141   -5.9576 C   0  0  0  0  0  0  0  0  0  0  0  0
   -3.4422   12.5360  -11.3947 C   0  0  0  0  0  0  0  0  0  0  0  0
   -2.3230   13.6139  -11.4067 C   0  0  0  0  0  0  0  0  0  0  0  0
   -3.2958   14.6820  -11.9593 C   0  0  0  0  0  0  0  0  0  0  0  0
   -1.7380   13.9356  -10.1565 O   0  0  0  0  0  0  0  0  0  0  0  0
   -6.0005   12.2762   -9.9046 H   0  0  0  0  0  0  0  0  0  0  0  0
   -8.1812   10.1071  -13.8902 H   0  0  0  0  0  0  0  0  0  0  0  0
   -6.9530   12.2555  -14.0918 H   0  0  0  0  0  0  0  0  0  0  0  0
   -8.0288    9.5892   -7.2517 H   0  0  0  0  0  0  0  0  0  0  0  0
   -4.8882    8.7841   -8.4909 H   0  0  0  0  0  0  0  0  0  0  0  0
   -2.6627    9.7615   -8.0471 H   0  0  0  0  0  0  0  0  0  0  0  0
   -4.5238   13.2903   -6.4741 H   0  0  0  0  0  0  0  0  0  0  0  0
   -6.7487   12.3097   -6.9107 H   0  0  0  0  0  0  0  0  0  0  0  0
   -2.4606   14.2195   -6.1845 H   0  0  0  0  0  0  0  0  0  0  0  0
    0.7764   12.6085   -7.5780 H   0  0  0  0  0  0  0  0  0  0  0  0
   -0.7344   10.6686   -6.5861 H   0  0  0  0  0  0  0  0  0  0  0  0
   -0.6840   11.3580   -8.2440 H   0  0  0  0  0  0  0  0  0  0  0  0
    1.4419   14.3475   -6.0293 H   0  0  0  0  0  0  0  0  0  0  0  0
    0.1758   15.4922   -6.5888 H   0  0  0  0  0  0  0  0  0  0  0  0
    0.1276   14.8490   -4.9123 H   0  0  0  0  0  0  0  0  0  0  0  0
   -3.6551   12.0930  -10.4106 H   0  0  0  0  0  0  0  0  0  0  0  0
   -3.3293   11.7354  -12.1405 H   0  0  0  0  0  0  0  0  0  0  0  0
   -1.5662   13.3629  -12.1645 H   0  0  0  0  0  0  0  0  0  0  0  0
   -3.1063   14.9918  -12.9976 H   0  0  0  0  0  0  0  0  0  0  0  0
   -3.4165   15.5738  -11.3267 H   0  0  0  0  0  0  0  0  0  0  0  0
   -1.0709   14.6005  -10.2803 H   0  0  0  0  0  0  0  0  0  0  0  0
  1  2  2  0  0  0  0
  1  4  1  0  0  0  0
  1 12  1  0  0  0  0
  2  6  1  0  0  0  0
  3  4  2  0  0  0  0
  3  5  1  0  0  0  0
  5  6  2  0  0  0  0
  5  9  1  0  0  0  0
  6  7  1  0  0  0  0
  7  8  1  0  0  0  0
  7 10  2  3  0  0  0
  8  9  2  0  0  0  0
 10 14  1  0  0  0  0
 11 12  1  0  0  0  0
 11 26  1  0  0  0  0
 11 28  1  0  0  0  0
 12 13  2  0  0  0  0
 14 15  2  0  0  0  0
 14 19  1  0  0  0  0
 15 16  1  0  0  0  0
 16 17  2  0  0  0  0
 17 18  1  0  0  0  0
 17 20  1  0  0  0  0
 18 19  2  0  0  0  0
 20 21  2  0  0  0  0
 20 24  1  0  0  0  0
 21 22  1  0  0  0  0
 22 23  1  0  0  0  0
 22 25  1  0  0  0  0
 23 24  1  0  0  0  0
 26 27  1  0  0  0  0
 27 28  1  0  0  0  0
 27 29  1  0  0  0  0
  2 30  1  0  0  0  0
  3 31  1  0  0  0  0
  4 32  1  0  0  0  0
 10 33  1  0  0  0  0
 15 34  1  0  0  0  0
 16 35  1  0  0  0  0
 18 36  1  0  0  0  0
 19 37  1  0  0  0  0
 21 38  1  0  0  0  0
 23 39  1  0  0  0  0
 24 40  1  0  0  0  0
 24 41  1  0  0  0  0
 25 42  1  0  0  0  0
 25 43  1  0  0  0  0
 25 44  1  0  0  0  0
 26 45  1  0  0  0  0
 26 46  1  0  0  0  0
 27 47  1  0  0  0  0
 28 48  1  0  0  0  0
 28 49  1  0  0  0  0
 29 50  1  0  0  0  0
M  END
> <Name>
35

> <IC50[uM]>
0.004

$$$$
35
  -OEChem-05192314333D
 Structure written by MMmdl.
 50 54  0     1  0  0  0  0  0999 V2000
   -6.3895   12.3678  -12.0373 C   0  0  0  0  0  0  0  0  0  0  0  0
   -6.4824   11.8098  -10.7511 C   0  0  0  0  0  0  0  0  0  0  0  0
   -7.7271   10.5745  -13.0290 C   0  0  0  0  0  0  0  0  0  0  0  0
   -7.0179   11.7711  -13.1287 C   0  0  0  0  0  0  0  0  0  0  0  0
   -7.8170   10.0145  -11.7522 C   0  0  0  0  0  0  0  0  0  0  0  0
   -7.2238   10.6236  -10.6024 C   0  0  0  0  0  0  0  0  0  0  0  0
   -7.6044    9.7508   -9.5065 C   0  0  0  0  0  0  0  0  0  0  0  0
   -8.2828    8.7443   -9.9813 N   0  0  0  0  0  0  0  0  0  0  0  0
   -8.4172    8.8704  -11.2949 N   0  0  0  0  0  0  0  0  0  0  0  0
   -7.3303    9.8854   -8.0203 C   0  0  0  0  0  0  0  0  0  0  0  0
   -4.3418   13.6528  -11.7950 N   0  0  0  0  0  0  0  0  0  0  0  0
   -5.6106   13.6402  -12.2589 C   0  0  0  0  0  0  0  0  0  0  0  0
   -6.1045   14.5768  -12.8828 O   0  0  0  0  0  0  0  0  0  0  0  0
   -5.9605   10.4846   -7.7337 C   0  0  0  0  0  0  0  0  0  0  0  0
   -4.8084    9.7674   -8.0514 C   0  0  0  0  0  0  0  0  0  0  0  0
   -3.5547   10.3189   -7.8020 C   0  0  0  0  0  0  0  0  0  0  0  0
   -3.4471   11.5931   -7.2348 C   0  0  0  0  0  0  0  0  0  0  0  0
   -4.6026   12.3073   -6.9145 C   0  0  0  0  0  0  0  0  0  0  0  0
   -5.8562   11.7556   -7.1614 C   0  0  0  0  0  0  0  0  0  0  0  0
   -2.1021   12.1835   -6.9708 C   0  0  0  0  0  0  0  0  0  0  0  0
   -1.7710   13.4390   -6.4702 C   0  0  0  0  0  0  0  0  0  0  0  0
   -0.4354   13.4950   -6.4103 N   0  0  3  0  0  0  0  0  0  0  0  0
    0.1709   12.4112   -6.8070 N   0  0  0  0  0  0  0  0  0  0  0  0
   -0.8030   11.5943   -7.1763 C   0  0  0  0  0  0  0  0  0  0  0  0
    0.3771   14.6141   -5.9576 C   0  0  0  0  0  0  0  0  0  0  0  0
   -3.4422   12.5360  -11.3947 C   0  0  0  0  0  0  0  0  0  0  0  0
   -2.3230   13.6139  -11.4067 C   0  0  0  0  0  0  0  0  0  0  0  0
   -3.2958   14.6820  -11.9593 C   0  0  0  0  0  0  0  0  0  0  0  0
   -1.7380   13.9356  -10.1565 O   0  0  0  0  0  0  0  0  0  0  0  0
   -6.0005   12.2762   -9.9046 H   0  0  0  0  0  0  0  0  0  0  0  0
   -8.1812   10.1071  -13.8902 H   0  0  0  0  0  0  0  0  0  0  0  0
   -6.9530   12.2555  -14.0918 H   0  0  0  0  0  0  0  0  0  0  0  0
   -8.0288    9.5892   -7.2517 H   0  0  0  0  0  0  0  0  0  0  0  0
   -4.8882    8.7841   -8.4909 H   0  0  0  0  0  0  0  0  0  0  0  0
   -2.6627    9.7615   -8.0471 H   0  0  0  0  0  0  0  0  0  0  0  0
   -4.5238   13.2903   -6.4741 H   0  0  0  0  0  0  0  0  0  0  0  0
   -6.7487   12.3097   -6.9107 H   0  0  0  0  0  0  0  0  0  0  0  0
   -2.1527   14.2251   -7.1383 H   0  0  0  0  0  0  0  0  0  0  0  0
   -2.2003   13.5709   -5.4661 H   0  0  0  0  0  0  0  0  0  0  0  0
    0.7764   12.6085   -7.5780 H   0  0  0  0  0  0  0  0  0  0  0  0
   -0.6435   10.6063   -7.5823 H   0  0  0  0  0  0  0  0  0  0  0  0
    1.4419   14.3475   -6.0293 H   0  0  0  0  0  0  0  0  0  0  0  0
    0.1758   15.4922   -6.5888 H   0  0  0  0  0  0  0  0  0  0  0  0
    0.1276   14.8490   -4.9123 H   0  0  0  0  0  0  0  0  0  0  0  0
   -3.6551   12.0930  -10.4106 H   0  0  0  0  0  0  0  0  0  0  0  0
   -3.3293   11.7354  -12.1405 H   0  0  0  0  0  0  0  0  0  0  0  0
   -1.5662   13.3629  -12.1645 H   0  0  0  0  0  0  0  0  0  0  0  0
   -3.1063   14.9918  -12.9976 H   0  0  0  0  0  0  0  0  0  0  0  0
   -3.4165   15.5738  -11.3267 H   0  0  0  0  0  0  0  0  0  0  0  0
   -1.0709   14.6005  -10.2803 H   0  0  0  0  0  0  0  0  0  0  0  0
  1  2  2  0  0  0  0
  1  4  1  0  0  0  0
  1 12  1  0  0  0  0
  2  6  1  0  0  0  0
  3  4  2  0  0  0  0
  3  5  1  0  0  0  0
  5  6  2  0  0  0  0
  5  9  1  0  0  0  0
  6  7  1  0  0  0  0
  7  8  1  0  0  0  0
  7 10  2  3  0  0  0
  8  9  2  0  0  0  0
 10 14  1  0  0  0  0
 11 12  1  0  0  0  0
 11 26  1  0  0  0  0
 11 28  1  0  0  0  0
 12 13  2  0  0  0  0
 14 15  2  0  0  0  0
 14 19  1  0  0  0  0
 15 16  1  0  0  0  0
 16 17  2  0  0  0  0
 17 18  1  0  0  0  0
 17 20  1  0  0  0  0
 18 19  2  0  0  0  0
 20 21  1  0  0  0  0
 20 24  2  0  0  0  0
 21 22  1  0  0  0  0
 22 23  1  0  0  0  0
 22 25  1  0  0  0  0
 23 24  1  0  0  0  0
 26 27  1  0  0  0  0
 27 28  1  0  0  0  0
 27 29  1  0  0  0  0
  2 30  1  0  0  0  0
  3 31  1  0  0  0  0
  4 32  1  0  0  0  0
 10 33  1  0  0  0  0
 15 34  1  0  0  0  0
 16 35  1  0  0  0  0
 18 36  1  0  0  0  0
 19 37  1  0  0  0  0
 21 38  1  0  0  0  0
 21 39  1  0  0  0  0
 23 40  1  0  0  0  0
 24 41  1  0  0  0  0
 25 42  1  0  0  0  0
 25 43  1  0  0  0  0
 25 44  1  0  0  0  0
 26 45  1  0  0  0  0
 26 46  1  0  0  0  0
 27 47  1  0  0  0  0
 28 48  1  0  0  0  0
 28 49  1  0  0  0  0
 29 50  1  0  0  0  0
M  END
> <Name>
35

> <IC50[uM]>
0.004

$$$$
35
  -OEChem-05192314333D
 Structure written by MMmdl.
 50 54  0     1  0  0  0  0  0999 V2000
   -6.3895   12.3678  -12.0373 C   0  0  0  0  0  0  0  0  0  0  0  0
   -6.4824   11.8098  -10.7511 C   0  0  0  0  0  0  0  0  0  0  0  0
   -7.7271   10.5745  -13.0290 C   0  0  0  0  0  0  0  0  0  0  0  0
   -7.0179   11.7711  -13.1287 C   0  0  0  0  0  0  0  0  0  0  0  0
   -7.8170   10.0145  -11.7522 C   0  0  0  0  0  0  0  0  0  0  0  0
   -7.2238   10.6236  -10.6024 C   0  0  0  0  0  0  0  0  0  0  0  0
   -7.6044    9.7508   -9.5065 C   0  0  3  0  0  0  0  0  0  0  0  0
   -8.2828    8.7443   -9.9813 N   0  0  0  0  0  0  0  0  0  0  0  0
   -8.4172    8.8704  -11.2949 N   0  0  0  0  0  0  0  0  0  0  0  0
   -7.3303    9.8854   -8.0203 C   0  0  0  0  0  0  0  0  0  0  0  0
   -4.3418   13.6528  -11.7950 N   0  0  0  0  0  0  0  0  0  0  0  0
   -5.6106   13.6402  -12.2589 C   0  0  0  0  0  0  0  0  0  0  0  0
   -6.1045   14.5768  -12.8828 O   0  0  0  0  0  0  0  0  0  0  0  0
   -5.9605   10.4846   -7.7337 C   0  0  0  0  0  0  0  0  0  0  0  0
   -4.8084    9.7674   -8.0514 C   0  0  0  0  0  0  0  0  0  0  0  0
   -3.5547   10.3189   -7.8020 C   0  0  0  0  0  0  0  0  0  0  0  0
   -3.4471   11.5931   -7.2348 C   0  0  0  0  0  0  0  0  0  0  0  0
   -4.6026   12.3073   -6.9145 C   0  0  0  0  0  0  0  0  0  0  0  0
   -5.8562   11.7556   -7.1614 C   0  0  0  0  0  0  0  0  0  0  0  0
   -2.1021   12.1835   -6.9708 C   0  0  0  0  0  0  0  0  0  0  0  0
   -1.7710   13.4390   -6.4702 C   0  0  0  0  0  0  0  0  0  0  0  0
   -0.4354   13.4950   -6.4103 N   0  0  3  0  0  0  0  0  0  0  0  0
    0.1709   12.4112   -6.8070 N   0  0  0  0  0  0  0  0  0  0  0  0
   -0.8030   11.5943   -7.1763 C   0  0  0  0  0  0  0  0  0  0  0  0
    0.3771   14.6141   -5.9576 C   0  0  0  0  0  0  0  0  0  0  0  0
   -3.4422   12.5360  -11.3947 C   0  0  0  0  0  0  0  0  0  0  0  0
   -2.3230   13.6139  -11.4067 C   0  0  0  0  0  0  0  0  0  0  0  0
   -3.2958   14.6820  -11.9593 C   0  0  0  0  0  0  0  0  0  0  0  0
   -1.7380   13.9356  -10.1565 O   0  0  0  0  0  0  0  0  0  0  0  0
   -6.0005   12.2762   -9.9046 H   0  0  0  0  0  0  0  0  0  0  0  0
   -8.1812   10.1071  -13.8902 H   0  0  0  0  0  0  0  0  0  0  0  0
   -6.9530   12.2555  -14.0918 H   0  0  0  0  0  0  0  0  0  0  0  0
   -6.6701    9.1835   -9.6302 H   0  0  0  0  0  0  0  0  0  0  0  0
   -8.0288    9.5892   -7.2517 H   0  0  0  0  0  0  0  0  0  0  0  0
   -4.8882    8.7841   -8.4909 H   0  0  0  0  0  0  0  0  0  0  0  0
   -2.6627    9.7615   -8.0471 H   0  0  0  0  0  0  0  0  0  0  0  0
   -4.5238   13.2903   -6.4741 H   0  0  0  0  0  0  0  0  0  0  0  0
   -6.7487   12.3097   -6.9107 H   0  0  0  0  0  0  0  0  0  0  0  0
   -2.1527   14.2251   -7.1383 H   0  0  0  0  0  0  0  0  0  0  0  0
   -2.2003   13.5709   -5.4661 H   0  0  0  0  0  0  0  0  0  0  0  0
   -0.6435   10.6063   -7.5823 H   0  0  0  0  0  0  0  0  0  0  0  0
    1.4419   14.3470   -6.0280 H   0  0  0  0  0  0  0  0  0  0  0  0
    0.1769   15.4918   -6.5897 H   0  0  0  0  0  0  0  0  0  0  0  0
    0.1266   14.8499   -4.9128 H   0  0  0  0  0  0  0  0  0  0  0  0
   -3.6551   12.0930  -10.4106 H   0  0  0  0  0  0  0  0  0  0  0  0
   -3.3293   11.7354  -12.1405 H   0  0  0  0  0  0  0  0  0  0  0  0
   -1.5662   13.3629  -12.1645 H   0  0  0  0  0  0  0  0  0  0  0  0
   -3.1063   14.9918  -12.9976 H   0  0  0  0  0  0  0  0  0  0  0  0
   -3.4165   15.5738  -11.3267 H   0  0  0  0  0  0  0  0  0  0  0  0
   -1.0709   14.6005  -10.2803 H   0  0  0  0  0  0  0  0  0  0  0  0
  1  2  2  0  0  0  0
  1  4  1  0  0  0  0
  1 12  1  0  0  0  0
  2  6  1  0  0  0  0
  3  4  2  0  0  0  0
  3  5  1  0  0  0  0
  5  6  2  0  0  0  0
  5  9  1  0  0  0  0
  6  7  1  0  0  0  0
  7  8  1  0  0  0  0
  7 10  1  0  0  0  0
  8  9  2  0  0  0  0
 10 14  2  0  0  0  0
 11 12  1  0  0  0  0
 11 26  1  0  0  0  0
 11 28  1  0  0  0  0
 12 13  2  0  0  0  0
 14 15  1  0  0  0  0
 14 19  1  0  0  0  0
 15 16  2  0  0  0  0
 16 17  1  0  0  0  0
 17 18  1  0  0  0  0
 17 20  2  0  0  0  0
 18 19  2  0  0  0  0
 20 21  1  0  0  0  0
 20 24  1  0  0  0  0
 21 22  1  0  0  0  0
 22 23  1  0  0  0  0
 22 25  1  0  0  0  0
 23 24  2  0  0  0  0
 26 27  1  0  0  0  0
 27 28  1  0  0  0  0
 27 29  1  0  0  0  0
  2 30  1  0  0  0  0
  3 31  1  0  0  0  0
  4 32  1  0  0  0  0
  7 33  1  0  0  0  0
 10 34  1  0  0  0  0
 15 35  1  0  0  0  0
 16 36  1  0  0  0  0
 18 37  1  0  0  0  0
 19 38  1  0  0  0  0
 21 39  1  0  0  0  0
 21 40  1  0  0  0  0
 24 41  1  0  0  0  0
 25 42  1  0  0  0  0
 25 43  1  0  0  0  0
 25 44  1  0  0  0  0
 26 45  1  0  0  0  0
 26 46  1  0  0  0  0
 27 47  1  0  0  0  0
 28 48  1  0  0  0  0
 28 49  1  0  0  0  0
 29 50  1  0  0  0  0
M  END
> <Name>
35

> <IC50[uM]>
0.004

$$$$
35
  -OEChem-05192314333D
 Structure written by MMmdl.
 50 54  0     1  0  0  0  0  0999 V2000
   -6.3895   12.3678  -12.0373 C   0  0  3  0  0  0  0  0  0  0  0  0
   -6.4824   11.8098  -10.7511 C   0  0  0  0  0  0  0  0  0  0  0  0
   -7.7271   10.5745  -13.0290 C   0  0  0  0  0  0  0  0  0  0  0  0
   -7.0179   11.7711  -13.1287 C   0  0  0  0  0  0  0  0  0  0  0  0
   -7.8170   10.0145  -11.7522 C   0  0  0  0  0  0  0  0  0  0  0  0
   -7.2238   10.6236  -10.6024 C   0  0  0  0  0  0  0  0  0  0  0  0
   -7.6044    9.7508   -9.5065 C   0  0  0  0  0  0  0  0  0  0  0  0
   -8.2828    8.7443   -9.9813 N   0  0  0  0  0  0  0  0  0  0  0  0
   -8.4172    8.8704  -11.2949 N   0  0  0  0  0  0  0  0  0  0  0  0
   -7.3303    9.8854   -8.0203 C   0  0  0  0  0  0  0  0  0  0  0  0
   -4.3418   13.6528  -11.7950 N   0  0  0  0  0  0  0  0  0  0  0  0
   -5.6106   13.6402  -12.2589 C   0  0  0  0  0  0  0  0  0  0  0  0
   -6.1045   14.5768  -12.8828 O   0  0  0  0  0  0  0  0  0  0  0  0
   -5.9605   10.4846   -7.7337 C   0  0  0  0  0  0  0  0  0  0  0  0
   -4.8084    9.7674   -8.0514 C   0  0  0  0  0  0  0  0  0  0  0  0
   -3.5547   10.3189   -7.8020 C   0  0  0  0  0  0  0  0  0  0  0  0
   -3.4471   11.5931   -7.2348 C   0  0  0  0  0  0  0  0  0  0  0  0
   -4.6026   12.3073   -6.9145 C   0  0  0  0  0  0  0  0  0  0  0  0
   -5.8562   11.7556   -7.1614 C   0  0  0  0  0  0  0  0  0  0  0  0
   -2.1021   12.1835   -6.9708 C   0  0  0  0  0  0  0  0  0  0  0  0
   -1.7710   13.4390   -6.4702 C   0  0  0  0  0  0  0  0  0  0  0  0
   -0.4354   13.4950   -6.4103 N   0  0  0  0  0  0  0  0  0  0  0  0
    0.1709   12.4112   -6.8070 N   0  0  0  0  0  0  0  0  0  0  0  0
   -0.8030   11.5943   -7.1763 C   0  0  0  0  0  0  0  0  0  0  0  0
    0.3771   14.6141   -5.9576 C   0  0  0  0  0  0  0  0  0  0  0  0
   -3.4422   12.5360  -11.3947 C   0  0  0  0  0  0  0  0  0  0  0  0
   -2.3230   13.6139  -11.4067 C   0  0  0  0  0  0  0  0  0  0  0  0
   -3.2958   14.6820  -11.9593 C   0  0  0  0  0  0  0  0  0  0  0  0
   -1.7380   13.9356  -10.1565 O   0  0  0  0  0  0  0  0  0  0  0  0
   -5.4830   11.7758  -12.2318 H   0  0  0  0  0  0  0  0  0  0  0  0
   -6.0005   12.2762   -9.9046 H   0  0  0  0  0  0  0  0  0  0  0  0
   -8.1812   10.1071  -13.8902 H   0  0  0  0  0  0  0  0  0  0  0  0
   -6.9530   12.2555  -14.0918 H   0  0  0  0  0  0  0  0  0  0  0  0
   -8.0995   10.5347   -7.5768 H   0  0  0  0  0  0  0  0  0  0  0  0
   -7.3826    8.8878   -7.5599 H   0  0  0  0  0  0  0  0  0  0  0  0
   -4.8882    8.7841   -8.4909 H   0  0  0  0  0  0  0  0  0  0  0  0
   -2.6627    9.7615   -8.0471 H   0  0  0  0  0  0  0  0  0  0  0  0
   -4.5238   13.2903   -6.4741 H   0  0  0  0  0  0  0  0  0  0  0  0
   -6.7487   12.3097   -6.9107 H   0  0  0  0  0  0  0  0  0  0  0  0
   -2.4606   14.2195   -6.1845 H   0  0  0  0  0  0  0  0  0  0  0  0
   -0.6435   10.6063   -7.5823 H   0  0  0  0  0  0  0  0  0  0  0  0
    1.4419   14.3470   -6.0280 H   0  0  0  0  0  0  0  0  0  0  0  0
    0.1769   15.4918   -6.5897 H   0  0  0  0  0  0  0  0  0  0  0  0
    0.1266   14.8499   -4.9128 H   0  0  0  0  0  0  0  0  0  0  0  0
   -3.6551   12.0930  -10.4106 H   0  0  0  0  0  0  0  0  0  0  0  0
   -3.3293   11.7354  -12.1405 H   0  0  0  0  0  0  0  0  0  0  0  0
   -1.5662   13.3629  -12.1645 H   0  0  0  0  0  0  0  0  0  0  0  0
   -3.1063   14.9918  -12.9976 H   0  0  0  0  0  0  0  0  0  0  0  0
   -3.4165   15.5738  -11.3267 H   0  0  0  0  0  0  0  0  0  0  0  0
   -1.0709   14.6005  -10.2803 H   0  0  0  0  0  0  0  0  0  0  0  0
  1  2  1  0  0  0  0
  1  4  1  0  0  0  0
  1 12  1  0  0  0  0
  2  6  2  0  0  0  0
  3  4  2  0  0  0  0
  3  5  1  0  0  0  0
  5  6  1  0  0  0  0
  5  9  2  0  0  0  0
  6  7  1  0  0  0  0
  7  8  2  0  0  0  0
  7 10  1  0  0  0  0
  8  9  1  0  0  0  0
 10 14  1  0  0  0  0
 11 12  1  0  0  0  0
 11 26  1  0  0  0  0
 11 28  1  0  0  0  0
 12 13  2  0  0  0  0
 14 15  2  0  0  0  0
 14 19  1  0  0  0  0
 15 16  1  0  0  0  0
 16 17  2  0  0  0  0
 17 18  1  0  0  0  0
 17 20  1  0  0  0  0
 18 19  2  0  0  0  0
 20 21  2  0  0  0  0
 20 24  1  0  0  0  0
 21 22  1  0  0  0  0
 22 23  1  0  0  0  0
 22 25  1  0  0  0  0
 23 24  2  0  0  0  0
 26 27  1  0  0  0  0
 27 28  1  0  0  0  0
 27 29  1  0  0  0  0
  1 30  1  0  0  0  0
  2 31  1  0  0  0  0
  3 32  1  0  0  0  0
  4 33  1  0  0  0  0
 10 34  1  0  0  0  0
 10 35  1  0  0  0  0
 15 36  1  0  0  0  0
 16 37  1  0  0  0  0
 18 38  1  0  0  0  0
 19 39  1  0  0  0  0
 21 40  1  0  0  0  0
 24 41  1  0  0  0  0
 25 42  1  0  0  0  0
 25 43  1  0  0  0  0
 25 44  1  0  0  0  0
 26 45  1  0  0  0  0
 26 46  1  0  0  0  0
 27 47  1  0  0  0  0
 28 48  1  0  0  0  0
 28 49  1  0  0  0  0
 29 50  1  0  0  0  0
M  END
> <Name>
35

> <IC50[uM]>
0.004

$$$$
35
  -OEChem-05192314333D
 Structure written by MMmdl.
 50 54  0     1  0  0  0  0  0999 V2000
   -6.3895   12.3678  -12.0373 C   0  0  0  0  0  0  0  0  0  0  0  0
   -6.4824   11.8098  -10.7511 C   0  0  0  0  0  0  0  0  0  0  0  0
   -7.7271   10.5745  -13.0290 C   0  0  0  0  0  0  0  0  0  0  0  0
   -7.0179   11.7711  -13.1287 C   0  0  0  0  0  0  0  0  0  0  0  0
   -7.8170   10.0145  -11.7522 C   0  0  0  0  0  0  0  0  0  0  0  0
   -7.2238   10.6236  -10.6024 C   0  0  3  0  0  0  0  0  0  0  0  0
   -7.6044    9.7508   -9.5065 C   0  0  0  0  0  0  0  0  0  0  0  0
   -8.2828    8.7443   -9.9813 N   0  0  0  0  0  0  0  0  0  0  0  0
   -8.4172    8.8704  -11.2949 N   0  0  0  0  0  0  0  0  0  0  0  0
   -7.3303    9.8854   -8.0203 C   0  0  0  0  0  0  0  0  0  0  0  0
   -4.3418   13.6528  -11.7950 N   0  0  0  0  0  0  0  0  0  0  0  0
   -5.6106   13.6402  -12.2589 C   0  0  0  0  0  0  0  0  0  0  0  0
   -6.1045   14.5768  -12.8828 O   0  0  0  0  0  0  0  0  0  0  0  0
   -5.9605   10.4846   -7.7337 C   0  0  0  0  0  0  0  0  0  0  0  0
   -4.8084    9.7674   -8.0514 C   0  0  0  0  0  0  0  0  0  0  0  0
   -3.5547   10.3189   -7.8020 C   0  0  0  0  0  0  0  0  0  0  0  0
   -3.4471   11.5931   -7.2348 C   0  0  0  0  0  0  0  0  0  0  0  0
   -4.6026   12.3073   -6.9145 C   0  0  0  0  0  0  0  0  0  0  0  0
   -5.8562   11.7556   -7.1614 C   0  0  0  0  0  0  0  0  0  0  0  0
   -2.1021   12.1835   -6.9708 C   0  0  0  0  0  0  0  0  0  0  0  0
   -1.7710   13.4390   -6.4702 C   0  0  0  0  0  0  0  0  0  0  0  0
   -0.4354   13.4950   -6.4103 N   0  0  0  0  0  0  0  0  0  0  0  0
    0.1709   12.4112   -6.8070 N   0  0  0  0  0  0  0  0  0  0  0  0
   -0.8030   11.5943   -7.1763 C   0  0  0  0  0  0  0  0  0  0  0  0
    0.3771   14.6141   -5.9576 C   0  0  0  0  0  0  0  0  0  0  0  0
   -3.4422   12.5360  -11.3947 C   0  0  0  0  0  0  0  0  0  0  0  0
   -2.3230   13.6139  -11.4067 C   0  0  0  0  0  0  0  0  0  0  0  0
   -3.2958   14.6820  -11.9593 C   0  0  0  0  0  0  0  0  0  0  0  0
   -1.7380   13.9356  -10.1565 O   0  0  0  0  0  0  0  0  0  0  0  0
   -6.0005   12.2762   -9.9046 H   0  0  0  0  0  0  0  0  0  0  0  0
   -8.1812   10.1071  -13.8902 H   0  0  0  0  0  0  0  0  0  0  0  0
   -6.9530   12.2555  -14.0918 H   0  0  0  0  0  0  0  0  0  0  0  0
   -6.3101   10.0314  -10.7584 H   0  0  0  0  0  0  0  0  0  0  0  0
   -8.0995   10.5347   -7.5768 H   0  0  0  0  0  0  0  0  0  0  0  0
   -7.3826    8.8878   -7.5599 H   0  0  0  0  0  0  0  0  0  0  0  0
   -4.8882    8.7841   -8.4909 H   0  0  0  0  0  0  0  0  0  0  0  0
   -2.6627    9.7615   -8.0471 H   0  0  0  0  0  0  0  0  0  0  0  0
   -4.5238   13.2903   -6.4741 H   0  0  0  0  0  0  0  0  0  0  0  0
   -6.7487   12.3097   -6.9107 H   0  0  0  0  0  0  0  0  0  0  0  0
   -2.4606   14.2195   -6.1845 H   0  0  0  0  0  0  0  0  0  0  0  0
   -0.6435   10.6063   -7.5823 H   0  0  0  0  0  0  0  0  0  0  0  0
    1.4419   14.3470   -6.0280 H   0  0  0  0  0  0  0  0  0  0  0  0
    0.1769   15.4918   -6.5897 H   0  0  0  0  0  0  0  0  0  0  0  0
    0.1266   14.8499   -4.9128 H   0  0  0  0  0  0  0  0  0  0  0  0
   -3.6551   12.0930  -10.4106 H   0  0  0  0  0  0  0  0  0  0  0  0
   -3.3293   11.7354  -12.1405 H   0  0  0  0  0  0  0  0  0  0  0  0
   -1.5662   13.3629  -12.1645 H   0  0  0  0  0  0  0  0  0  0  0  0
   -3.1063   14.9918  -12.9976 H   0  0  0  0  0  0  0  0  0  0  0  0
   -3.4165   15.5738  -11.3267 H   0  0  0  0  0  0  0  0  0  0  0  0
   -1.0709   14.6005  -10.2803 H   0  0  0  0  0  0  0  0  0  0  0  0
  1  2  2  0  0  0  0
  1  4  1  0  0  0  0
  1 12  1  0  0  0  0
  2  6  1  0  0  0  0
  3  4  2  0  0  0  0
  3  5  1  0  0  0  0
  5  6  1  0  0  0  0
  5  9  2  0  0  0  0
  6  7  1  0  0  0  0
  7  8  2  0  0  0  0
  7 10  1  0  0  0  0
  8  9  1  0  0  0  0
 10 14  1  0  0  0  0
 11 12  1  0  0  0  0
 11 26  1  0  0  0  0
 11 28  1  0  0  0  0
 12 13  2  0  0  0  0
 14 15  2  0  0  0  0
 14 19  1  0  0  0  0
 15 16  1  0  0  0  0
 16 17  2  0  0  0  0
 17 18  1  0  0  0  0
 17 20  1  0  0  0  0
 18 19  2  0  0  0  0
 20 21  2  0  0  0  0
 20 24  1  0  0  0  0
 21 22  1  0  0  0  0
 22 23  1  0  0  0  0
 22 25  1  0  0  0  0
 23 24  2  0  0  0  0
 26 27  1  0  0  0  0
 27 28  1  0  0  0  0
 27 29  1  0  0  0  0
  2 30  1  0  0  0  0
  3 31  1  0  0  0  0
  4 32  1  0  0  0  0
  6 33  1  0  0  0  0
 10 34  1  0  0  0  0
 10 35  1  0  0  0  0
 15 36  1  0  0  0  0
 16 37  1  0  0  0  0
 18 38  1  0  0  0  0
 19 39  1  0  0  0  0
 21 40  1  0  0  0  0
 24 41  1  0  0  0  0
 25 42  1  0  0  0  0
 25 43  1  0  0  0  0
 25 44  1  0  0  0  0
 26 45  1  0  0  0  0
 26 46  1  0  0  0  0
 27 47  1  0  0  0  0
 28 48  1  0  0  0  0
 28 49  1  0  0  0  0
 29 50  1  0  0  0  0
M  END
> <Name>
35

> <IC50[uM]>
0.004

$$$$
35
  -OEChem-05192314333D
 Structure written by MMmdl.
 50 54  0     0  0  0  0  0  0999 V2000
   -6.3895   12.3678  -12.0373 C   0  0  0  0  0  0  0  0  0  0  0  0
   -6.4824   11.8098  -10.7511 C   0  0  0  0  0  0  0  0  0  0  0  0
   -7.7271   10.5745  -13.0290 C   0  0  0  0  0  0  0  0  0  0  0  0
   -7.0179   11.7711  -13.1287 C   0  0  0  0  0  0  0  0  0  0  0  0
   -7.8170   10.0145  -11.7522 C   0  0  0  0  0  0  0  0  0  0  0  0
   -7.2238   10.6236  -10.6024 C   0  0  0  0  0  0  0  0  0  0  0  0
   -7.6044    9.7508   -9.5065 C   0  0  0  0  0  0  0  0  0  0  0  0
   -8.2828    8.7443   -9.9813 N   0  0  0  0  0  0  0  0  0  0  0  0
   -8.4172    8.8704  -11.2949 N   0  0  0  0  0  0  0  0  0  0  0  0
   -7.3303    9.8854   -8.0203 C   0  0  0  0  0  0  0  0  0  0  0  0
   -4.3418   13.6528  -11.7950 N   0  0  0  0  0  0  0  0  0  0  0  0
   -5.6106   13.6402  -12.2589 C   0  0  0  0  0  0  0  0  0  0  0  0
   -6.1045   14.5768  -12.8828 O   0  0  0  0  0  0  0  0  0  0  0  0
   -5.9605   10.4846   -7.7337 C   0  0  0  0  0  0  0  0  0  0  0  0
   -4.8084    9.7674   -8.0514 C   0  0  0  0  0  0  0  0  0  0  0  0
   -3.5547   10.3189   -7.8020 C   0  0  0  0  0  0  0  0  0  0  0  0
   -3.4471   11.5931   -7.2348 C   0  0  0  0  0  0  0  0  0  0  0  0
   -4.6026   12.3073   -6.9145 C   0  0  0  0  0  0  0  0  0  0  0  0
   -5.8562   11.7556   -7.1614 C   0  0  0  0  0  0  0  0  0  0  0  0
   -2.1021   12.1835   -6.9708 C   0  0  0  0  0  0  0  0  0  0  0  0
   -1.7710   13.4390   -6.4702 C   0  0  0  0  0  0  0  0  0  0  0  0
   -0.4354   13.4950   -6.4103 N   0  0  0  0  0  0  0  0  0  0  0  0
    0.1709   12.4112   -6.8070 N   0  0  0  0  0  0  0  0  0  0  0  0
   -0.8030   11.5943   -7.1763 C   0  0  0  0  0  0  0  0  0  0  0  0
    0.3771   14.6141   -5.9576 C   0  0  0  0  0  0  0  0  0  0  0  0
   -3.4422   12.5360  -11.3947 C   0  0  0  0  0  0  0  0  0  0  0  0
   -2.3230   13.6139  -11.4067 C   0  0  0  0  0  0  0  0  0  0  0  0
   -3.2958   14.6820  -11.9593 C   0  0  0  0  0  0  0  0  0  0  0  0
   -1.7380   13.9356  -10.1565 O   0  0  0  0  0  0  0  0  0  0  0  0
   -6.0005   12.2762   -9.9046 H   0  0  0  0  0  0  0  0  0  0  0  0
   -8.7506   10.7604  -13.3866 H   0  0  0  0  0  0  0  0  0  0  0  0
   -7.2377    9.8389  -13.6842 H   0  0  0  0  0  0  0  0  0  0  0  0
   -6.9530   12.2555  -14.0918 H   0  0  0  0  0  0  0  0  0  0  0  0
   -8.0995   10.5347   -7.5768 H   0  0  0  0  0  0  0  0  0  0  0  0
   -7.3826    8.8878   -7.5599 H   0  0  0  0  0  0  0  0  0  0  0  0
   -4.8882    8.7841   -8.4909 H   0  0  0  0  0  0  0  0  0  0  0  0
   -2.6627    9.7615   -8.0471 H   0  0  0  0  0  0  0  0  0  0  0  0
   -4.5238   13.2903   -6.4741 H   0  0  0  0  0  0  0  0  0  0  0  0
   -6.7487   12.3097   -6.9107 H   0  0  0  0  0  0  0  0  0  0  0  0
   -2.4606   14.2195   -6.1845 H   0  0  0  0  0  0  0  0  0  0  0  0
   -0.6435   10.6063   -7.5823 H   0  0  0  0  0  0  0  0  0  0  0  0
    1.4419   14.3470   -6.0280 H   0  0  0  0  0  0  0  0  0  0  0  0
    0.1769   15.4918   -6.5897 H   0  0  0  0  0  0  0  0  0  0  0  0
    0.1266   14.8499   -4.9128 H   0  0  0  0  0  0  0  0  0  0  0  0
   -3.6551   12.0930  -10.4106 H   0  0  0  0  0  0  0  0  0  0  0  0
   -3.3293   11.7354  -12.1405 H   0  0  0  0  0  0  0  0  0  0  0  0
   -1.5662   13.3629  -12.1645 H   0  0  0  0  0  0  0  0  0  0  0  0
   -3.1063   14.9918  -12.9976 H   0  0  0  0  0  0  0  0  0  0  0  0
   -3.4165   15.5738  -11.3267 H   0  0  0  0  0  0  0  0  0  0  0  0
   -1.0709   14.6005  -10.2803 H   0  0  0  0  0  0  0  0  0  0  0  0
  1  2  1  0  0  0  0
  1  4  2  0  0  0  0
  1 12  1  0  0  0  0
  2  6  2  0  0  0  0
  3  4  1  0  0  0  0
  3  5  1  0  0  0  0
  5  6  1  0  0  0  0
  5  9  2  0  0  0  0
  6  7  1  0  0  0  0
  7  8  2  0  0  0  0
  7 10  1  0  0  0  0
  8  9  1  0  0  0  0
 10 14  1  0  0  0  0
 11 12  1  0  0  0  0
 11 26  1  0  0  0  0
 11 28  1  0  0  0  0
 12 13  2  0  0  0  0
 14 15  2  0  0  0  0
 14 19  1  0  0  0  0
 15 16  1  0  0  0  0
 16 17  2  0  0  0  0
 17 18  1  0  0  0  0
 17 20  1  0  0  0  0
 18 19  2  0  0  0  0
 20 21  2  0  0  0  0
 20 24  1  0  0  0  0
 21 22  1  0  0  0  0
 22 23  1  0  0  0  0
 22 25  1  0  0  0  0
 23 24  2  0  0  0  0
 26 27  1  0  0  0  0
 27 28  1  0  0  0  0
 27 29  1  0  0  0  0
  2 30  1  0  0  0  0
  3 31  1  0  0  0  0
  3 32  1  0  0  0  0
  4 33  1  0  0  0  0
 10 34  1  0  0  0  0
 10 35  1  0  0  0  0
 15 36  1  0  0  0  0
 16 37  1  0  0  0  0
 18 38  1  0  0  0  0
 19 39  1  0  0  0  0
 21 40  1  0  0  0  0
 24 41  1  0  0  0  0
 25 42  1  0  0  0  0
 25 43  1  0  0  0  0
 25 44  1  0  0  0  0
 26 45  1  0  0  0  0
 26 46  1  0  0  0  0
 27 47  1  0  0  0  0
 28 48  1  0  0  0  0
 28 49  1  0  0  0  0
 29 50  1  0  0  0  0
M  END
> <Name>
35

> <IC50[uM]>
0.004

$$$$
35
  -OEChem-05192314333D
 Structure written by MMmdl.
 50 54  0     0  0  0  0  0  0999 V2000
   -6.3895   12.3678  -12.0373 C   0  0  0  0  0  0  0  0  0  0  0  0
   -6.4824   11.8098  -10.7511 C   0  0  0  0  0  0  0  0  0  0  0  0
   -7.7271   10.5745  -13.0290 C   0  0  0  0  0  0  0  0  0  0  0  0
   -7.0179   11.7711  -13.1287 C   0  0  0  0  0  0  0  0  0  0  0  0
   -7.8170   10.0145  -11.7522 C   0  0  0  0  0  0  0  0  0  0  0  0
   -7.2238   10.6236  -10.6024 C   0  0  0  0  0  0  0  0  0  0  0  0
   -7.6044    9.7508   -9.5065 C   0  0  0  0  0  0  0  0  0  0  0  0
   -8.2828    8.7443   -9.9813 N   0  0  0  0  0  0  0  0  0  0  0  0
   -8.4172    8.8704  -11.2949 N   0  0  0  0  0  0  0  0  0  0  0  0
   -7.3303    9.8854   -8.0203 C   0  0  0  0  0  0  0  0  0  0  0  0
   -4.3418   13.6528  -11.7950 N   0  0  0  0  0  0  0  0  0  0  0  0
   -5.6106   13.6402  -12.2589 C   0  0  0  0  0  0  0  0  0  0  0  0
   -6.1045   14.5768  -12.8828 O   0  0  0  0  0  0  0  0  0  0  0  0
   -5.9605   10.4846   -7.7337 C   0  0  0  0  0  0  0  0  0  0  0  0
   -4.8084    9.7674   -8.0514 C   0  0  0  0  0  0  0  0  0  0  0  0
   -3.5547   10.3189   -7.8020 C   0  0  0  0  0  0  0  0  0  0  0  0
   -3.4471   11.5931   -7.2348 C   0  0  0  0  0  0  0  0  0  0  0  0
   -4.6026   12.3073   -6.9145 C   0  0  0  0  0  0  0  0  0  0  0  0
   -5.8562   11.7556   -7.1614 C   0  0  0  0  0  0  0  0  0  0  0  0
   -2.1021   12.1835   -6.9708 C   0  0  0  0  0  0  0  0  0  0  0  0
   -1.7710   13.4390   -6.4702 C   0  0  0  0  0  0  0  0  0  0  0  0
   -0.4354   13.4950   -6.4103 N   0  0  0  0  0  0  0  0  0  0  0  0
    0.1709   12.4112   -6.8070 N   0  0  0  0  0  0  0  0  0  0  0  0
   -0.8030   11.5943   -7.1763 C   0  0  0  0  0  0  0  0  0  0  0  0
    0.3771   14.6141   -5.9576 C   0  0  0  0  0  0  0  0  0  0  0  0
   -3.4422   12.5360  -11.3947 C   0  0  0  0  0  0  0  0  0  0  0  0
   -2.3230   13.6139  -11.4067 C   0  0  0  0  0  0  0  0  0  0  0  0
   -3.2958   14.6820  -11.9593 C   0  0  0  0  0  0  0  0  0  0  0  0
   -1.7380   13.9356  -10.1565 O   0  0  0  0  0  0  0  0  0  0  0  0
   -6.0005   12.2762   -9.9046 H   0  0  0  0  0  0  0  0  0  0  0  0
   -8.1812   10.1071  -13.8902 H   0  0  0  0  0  0  0  0  0  0  0  0
   -6.9530   12.2555  -14.0918 H   0  0  0  0  0  0  0  0  0  0  0  0
   -8.0288    9.5892   -7.2517 H   0  0  0  0  0  0  0  0  0  0  0  0
   -5.9694   10.0313   -6.7315 H   0  0  0  0  0  0  0  0  0  0  0  0
   -4.8882    8.7841   -8.4909 H   0  0  0  0  0  0  0  0  0  0  0  0
   -2.6627    9.7615   -8.0471 H   0  0  0  0  0  0  0  0  0  0  0  0
   -3.4475   12.0413   -8.2394 H   0  0  0  0  0  0  0  0  0  0  0  0
   -4.5238   13.2903   -6.4741 H   0  0  0  0  0  0  0  0  0  0  0  0
   -6.7487   12.3097   -6.9107 H   0  0  0  0  0  0  0  0  0  0  0  0
   -2.4606   14.2195   -6.1845 H   0  0  0  0  0  0  0  0  0  0  0  0
   -0.6435   10.6063   -7.5823 H   0  0  0  0  0  0  0  0  0  0  0  0
    1.4419   14.3470   -6.0280 H   0  0  0  0  0  0  0  0  0  0  0  0
    0.1769   15.4918   -6.5897 H   0  0  0  0  0  0  0  0  0  0  0  0
    0.1266   14.8499   -4.9128 H   0  0  0  0  0  0  0  0  0  0  0  0
   -3.6551   12.0930  -10.4106 H   0  0  0  0  0  0  0  0  0  0  0  0
   -3.3293   11.7354  -12.1405 H   0  0  0  0  0  0  0  0  0  0  0  0
   -1.5662   13.3629  -12.1645 H   0  0  0  0  0  0  0  0  0  0  0  0
   -3.1063   14.9918  -12.9976 H   0  0  0  0  0  0  0  0  0  0  0  0
   -3.4165   15.5738  -11.3267 H   0  0  0  0  0  0  0  0  0  0  0  0
   -1.0709   14.6005  -10.2803 H   0  0  0  0  0  0  0  0  0  0  0  0
  1  2  2  0  0  0  0
  1  4  1  0  0  0  0
  1 12  1  0  0  0  0
  2  6  1  0  0  0  0
  3  4  2  0  0  0  0
  3  5  1  0  0  0  0
  5  6  2  0  0  0  0
  5  9  1  0  0  0  0
  6  7  1  0  0  0  0
  7  8  1  0  0  0  0
  7 10  2  3  0  0  0
  8  9  2  0  0  0  0
 10 14  1  0  0  0  0
 11 12  1  0  0  0  0
 11 26  1  0  0  0  0
 11 28  1  0  0  0  0
 12 13  2  0  0  0  0
 14 15  1  0  0  0  0
 14 19  1  0  0  0  0
 15 16  2  0  0  0  0
 16 17  1  0  0  0  0
 17 18  1  0  0  0  0
 17 20  1  0  0  0  0
 18 19  2  0  0  0  0
 20 21  2  0  0  0  0
 20 24  1  0  0  0  0
 21 22  1  0  0  0  0
 22 23  1  0  0  0  0
 22 25  1  0  0  0  0
 23 24  2  0  0  0  0
 26 27  1  0  0  0  0
 27 28  1  0  0  0  0
 27 29  1  0  0  0  0
  2 30  1  0  0  0  0
  3 31  1  0  0  0  0
  4 32  1  0  0  0  0
 10 33  1  0  0  0  0
 14 34  1  0  0  0  0
 15 35  1  0  0  0  0
 16 36  1  0  0  0  0
 17 37  1  0  0  0  0
 18 38  1  0  0  0  0
 19 39  1  0  0  0  0
 21 40  1  0  0  0  0
 24 41  1  0  0  0  0
 25 42  1  0  0  0  0
 25 43  1  0  0  0  0
 25 44  1  0  0  0  0
 26 45  1  0  0  0  0
 26 46  1  0  0  0  0
 27 47  1  0  0  0  0
 28 48  1  0  0  0  0
 28 49  1  0  0  0  0
 29 50  1  0  0  0  0
M  END
> <Name>
35

> <IC50[uM]>
0.004

$$$$
35
  -OEChem-05192314333D
 Structure written by MMmdl.
 50 54  0     1  0  0  0  0  0999 V2000
   -6.3895   12.3678  -12.0373 C   0  0  0  0  0  0  0  0  0  0  0  0
   -6.4824   11.8098  -10.7511 C   0  0  0  0  0  0  0  0  0  0  0  0
   -7.7271   10.5745  -13.0290 C   0  0  0  0  0  0  0  0  0  0  0  0
   -7.0179   11.7711  -13.1287 C   0  0  0  0  0  0  0  0  0  0  0  0
   -7.8170   10.0145  -11.7522 C   0  0  0  0  0  0  0  0  0  0  0  0
   -7.2238   10.6236  -10.6024 C   0  0  0  0  0  0  0  0  0  0  0  0
   -7.6044    9.7508   -9.5065 C   0  0  3  0  0  0  0  0  0  0  0  0
   -8.2828    8.7443   -9.9813 N   0  0  0  0  0  0  0  0  0  0  0  0
   -8.4172    8.8704  -11.2949 N   0  0  0  0  0  0  0  0  0  0  0  0
   -7.3303    9.8854   -8.0203 C   0  0  0  0  0  0  0  0  0  0  0  0
   -4.3418   13.6528  -11.7950 N   0  0  0  0  0  0  0  0  0  0  0  0
   -5.6106   13.6402  -12.2589 C   0  0  0  0  0  0  0  0  0  0  0  0
   -6.1045   14.5768  -12.8828 O   0  0  0  0  0  0  0  0  0  0  0  0
   -5.9605   10.4846   -7.7337 C   0  0  0  0  0  0  0  0  0  0  0  0
   -4.8084    9.7674   -8.0514 C   0  0  0  0  0  0  0  0  0  0  0  0
   -3.5547   10.3189   -7.8020 C   0  0  0  0  0  0  0  0  0  0  0  0
   -3.4471   11.5931   -7.2348 C   0  0  0  0  0  0  0  0  0  0  0  0
   -4.6026   12.3073   -6.9145 C   0  0  0  0  0  0  0  0  0  0  0  0
   -5.8562   11.7556   -7.1614 C   0  0  0  0  0  0  0  0  0  0  0  0
   -2.1021   12.1835   -6.9708 C   0  0  0  0  0  0  0  0  0  0  0  0
   -1.7710   13.4390   -6.4702 C   0  0  0  0  0  0  0  0  0  0  0  0
   -0.4354   13.4950   -6.4103 N   0  0  0  0  0  0  0  0  0  0  0  0
    0.1709   12.4112   -6.8070 N   0  0  0  0  0  0  0  0  0  0  0  0
   -0.8030   11.5943   -7.1763 C   0  0  0  0  0  0  0  0  0  0  0  0
    0.3771   14.6141   -5.9576 C   0  0  0  0  0  0  0  0  0  0  0  0
   -3.4422   12.5360  -11.3947 C   0  0  0  0  0  0  0  0  0  0  0  0
   -2.3230   13.6139  -11.4067 C   0  0  0  0  0  0  0  0  0  0  0  0
   -3.2958   14.6820  -11.9593 C   0  0  0  0  0  0  0  0  0  0  0  0
   -1.7380   13.9356  -10.1565 O   0  0  0  0  0  0  0  0  0  0  0  0
   -6.0005   12.2762   -9.9046 H   0  0  0  0  0  0  0  0  0  0  0  0
   -8.1812   10.1071  -13.8902 H   0  0  0  0  0  0  0  0  0  0  0  0
   -6.9530   12.2555  -14.0918 H   0  0  0  0  0  0  0  0  0  0  0  0
   -6.6701    9.1835   -9.6302 H   0  0  0  0  0  0  0  0  0  0  0  0
   -8.0288    9.5892   -7.2517 H   0  0  0  0  0  0  0  0  0  0  0  0
   -4.8882    8.7841   -8.4909 H   0  0  0  0  0  0  0  0  0  0  0  0
   -2.6627    9.7615   -8.0471 H   0  0  0  0  0  0  0  0  0  0  0  0
   -3.4475   12.0413   -8.2394 H   0  0  0  0  0  0  0  0  0  0  0  0
   -4.5238   13.2903   -6.4741 H   0  0  0  0  0  0  0  0  0  0  0  0
   -6.7487   12.3097   -6.9107 H   0  0  0  0  0  0  0  0  0  0  0  0
   -2.4606   14.2195   -6.1845 H   0  0  0  0  0  0  0  0  0  0  0  0
   -0.6435   10.6063   -7.5823 H   0  0  0  0  0  0  0  0  0  0  0  0
    1.4419   14.3470   -6.0280 H   0  0  0  0  0  0  0  0  0  0  0  0
    0.1769   15.4918   -6.5897 H   0  0  0  0  0  0  0  0  0  0  0  0
    0.1266   14.8499   -4.9128 H   0  0  0  0  0  0  0  0  0  0  0  0
   -3.6551   12.0930  -10.4106 H   0  0  0  0  0  0  0  0  0  0  0  0
   -3.3293   11.7354  -12.1405 H   0  0  0  0  0  0  0  0  0  0  0  0
   -1.5662   13.3629  -12.1645 H   0  0  0  0  0  0  0  0  0  0  0  0
   -3.1063   14.9918  -12.9976 H   0  0  0  0  0  0  0  0  0  0  0  0
   -3.4165   15.5738  -11.3267 H   0  0  0  0  0  0  0  0  0  0  0  0
   -1.0709   14.6005  -10.2803 H   0  0  0  0  0  0  0  0  0  0  0  0
  1  2  2  0  0  0  0
  1  4  1  0  0  0  0
  1 12  1  0  0  0  0
  2  6  1  0  0  0  0
  3  4  2  0  0  0  0
  3  5  1  0  0  0  0
  5  6  2  0  0  0  0
  5  9  1  0  0  0  0
  6  7  1  0  0  0  0
  7  8  1  0  0  0  0
  7 10  1  0  0  0  0
  8  9  2  0  0  0  0
 10 14  2  0  0  0  0
 11 12  1  0  0  0  0
 11 26  1  0  0  0  0
 11 28  1  0  0  0  0
 12 13  2  0  0  0  0
 14 15  1  0  0  0  0
 14 19  1  0  0  0  0
 15 16  2  0  0  0  0
 16 17  1  0  0  0  0
 17 18  1  0  0  0  0
 17 20  1  0  0  0  0
 18 19  2  0  0  0  0
 20 21  2  0  0  0  0
 20 24  1  0  0  0  0
 21 22  1  0  0  0  0
 22 23  1  0  0  0  0
 22 25  1  0  0  0  0
 23 24  2  0  0  0  0
 26 27  1  0  0  0  0
 27 28  1  0  0  0  0
 27 29  1  0  0  0  0
  2 30  1  0  0  0  0
  3 31  1  0  0  0  0
  4 32  1  0  0  0  0
  7 33  1  0  0  0  0
 10 34  1  0  0  0  0
 15 35  1  0  0  0  0
 16 36  1  0  0  0  0
 17 37  1  0  0  0  0
 18 38  1  0  0  0  0
 19 39  1  0  0  0  0
 21 40  1  0  0  0  0
 24 41  1  0  0  0  0
 25 42  1  0  0  0  0
 25 43  1  0  0  0  0
 25 44  1  0  0  0  0
 26 45  1  0  0  0  0
 26 46  1  0  0  0  0
 27 47  1  0  0  0  0
 28 48  1  0  0  0  0
 28 49  1  0  0  0  0
 29 50  1  0  0  0  0
M  END
> <Name>
35

> <IC50[uM]>
0.004

$$$$
35
  -OEChem-05192314333D
 Structure written by MMmdl.
 50 54  0     1  0  0  0  0  0999 V2000
   -6.3895   12.3678  -12.0373 C   0  0  3  0  0  0  0  0  0  0  0  0
   -6.4824   11.8098  -10.7511 C   0  0  0  0  0  0  0  0  0  0  0  0
   -7.7271   10.5745  -13.0290 C   0  0  0  0  0  0  0  0  0  0  0  0
   -7.0179   11.7711  -13.1287 C   0  0  0  0  0  0  0  0  0  0  0  0
   -7.8170   10.0145  -11.7522 C   0  0  3  0  0  0  0  0  0  0  0  0
   -7.2238   10.6236  -10.6024 C   0  0  0  0  0  0  0  0  0  0  0  0
   -7.6044    9.7508   -9.5065 C   0  0  0  0  0  0  0  0  0  0  0  0
   -8.2828    8.7443   -9.9813 N   0  0  0  0  0  0  0  0  0  0  0  0
   -8.4172    8.8704  -11.2949 N   0  0  0  0  0  0  0  0  0  0  0  0
   -7.3303    9.8854   -8.0203 C   0  0  0  0  0  0  0  0  0  0  0  0
   -4.3418   13.6528  -11.7950 N   0  0  0  0  0  0  0  0  0  0  0  0
   -5.6106   13.6402  -12.2589 C   0  0  0  0  0  0  0  0  0  0  0  0
   -6.1045   14.5768  -12.8828 O   0  0  0  0  0  0  0  0  0  0  0  0
   -5.9605   10.4846   -7.7337 C   0  0  0  0  0  0  0  0  0  0  0  0
   -4.8084    9.7674   -8.0514 C   0  0  0  0  0  0  0  0  0  0  0  0
   -3.5547   10.3189   -7.8020 C   0  0  0  0  0  0  0  0  0  0  0  0
   -3.4471   11.5931   -7.2348 C   0  0  0  0  0  0  0  0  0  0  0  0
   -4.6026   12.3073   -6.9145 C   0  0  0  0  0  0  0  0  0  0  0  0
   -5.8562   11.7556   -7.1614 C   0  0  0  0  0  0  0  0  0  0  0  0
   -2.1021   12.1835   -6.9708 C   0  0  0  0  0  0  0  0  0  0  0  0
   -1.7710   13.4390   -6.4702 C   0  0  0  0  0  0  0  0  0  0  0  0
   -0.4354   13.4950   -6.4103 N   0  0  0  0  0  0  0  0  0  0  0  0
    0.1709   12.4112   -6.8070 N   0  0  0  0  0  0  0  0  0  0  0  0
   -0.8030   11.5943   -7.1763 C   0  0  0  0  0  0  0  0  0  0  0  0
    0.3771   14.6141   -5.9576 C   0  0  0  0  0  0  0  0  0  0  0  0
   -3.4422   12.5360  -11.3947 C   0  0  0  0  0  0  0  0  0  0  0  0
   -2.3230   13.6139  -11.4067 C   0  0  0  0  0  0  0  0  0  0  0  0
   -3.2958   14.6820  -11.9593 C   0  0  0  0  0  0  0  0  0  0  0  0
   -1.7380   13.9356  -10.1565 O   0  0  0  0  0  0  0  0  0  0  0  0
   -5.4830   11.7758  -12.2318 H   0  0  0  0  0  0  0  0  0  0  0  0
   -6.0005   12.2762   -9.9046 H   0  0  0  0  0  0  0  0  0  0  0  0
   -8.1812   10.1071  -13.8902 H   0  0  0  0  0  0  0  0  0  0  0  0
   -6.9530   12.2555  -14.0918 H   0  0  0  0  0  0  0  0  0  0  0  0
   -8.7459   10.5752  -11.5709 H   0  0  0  0  0  0  0  0  0  0  0  0
   -8.0288    9.5892   -7.2517 H   0  0  0  0  0  0  0  0  0  0  0  0
   -4.8882    8.7841   -8.4909 H   0  0  0  0  0  0  0  0  0  0  0  0
   -2.6627    9.7615   -8.0471 H   0  0  0  0  0  0  0  0  0  0  0  0
   -4.5238   13.2903   -6.4741 H   0  0  0  0  0  0  0  0  0  0  0  0
   -6.7487   12.3097   -6.9107 H   0  0  0  0  0  0  0  0  0  0  0  0
   -2.4606   14.2195   -6.1845 H   0  0  0  0  0  0  0  0  0  0  0  0
   -0.6435   10.6063   -7.5823 H   0  0  0  0  0  0  0  0  0  0  0  0
    1.4419   14.3470   -6.0280 H   0  0  0  0  0  0  0  0  0  0  0  0
    0.1769   15.4918   -6.5897 H   0  0  0  0  0  0  0  0  0  0  0  0
    0.1266   14.8499   -4.9128 H   0  0  0  0  0  0  0  0  0  0  0  0
   -3.6551   12.0930  -10.4106 H   0  0  0  0  0  0  0  0  0  0  0  0
   -3.3293   11.7354  -12.1405 H   0  0  0  0  0  0  0  0  0  0  0  0
   -1.5662   13.3629  -12.1645 H   0  0  0  0  0  0  0  0  0  0  0  0
   -3.1063   14.9918  -12.9976 H   0  0  0  0  0  0  0  0  0  0  0  0
   -3.4165   15.5738  -11.3267 H   0  0  0  0  0  0  0  0  0  0  0  0
   -1.0709   14.6005  -10.2803 H   0  0  0  0  0  0  0  0  0  0  0  0
  1  2  1  0  0  0  0
  1  4  1  0  0  0  0
  1 12  1  0  0  0  0
  2  6  2  0  0  0  0
  3  4  2  0  0  0  0
  3  5  1  0  0  0  0
  5  6  1  0  0  0  0
  5  9  1  0  0  0  0
  6  7  1  0  0  0  0
  7  8  1  0  0  0  0
  7 10  2  3  0  0  0
  8  9  2  0  0  0  0
 10 14  1  0  0  0  0
 11 12  1  0  0  0  0
 11 26  1  0  0  0  0
 11 28  1  0  0  0  0
 12 13  2  0  0  0  0
 14 15  2  0  0  0  0
 14 19  1  0  0  0  0
 15 16  1  0  0  0  0
 16 17  2  0  0  0  0
 17 18  1  0  0  0  0
 17 20  1  0  0  0  0
 18 19  2  0  0  0  0
 20 21  2  0  0  0  0
 20 24  1  0  0  0  0
 21 22  1  0  0  0  0
 22 23  1  0  0  0  0
 22 25  1  0  0  0  0
 23 24  2  0  0  0  0
 26 27  1  0  0  0  0
 27 28  1  0  0  0  0
 27 29  1  0  0  0  0
  1 30  1  0  0  0  0
  2 31  1  0  0  0  0
  3 32  1  0  0  0  0
  4 33  1  0  0  0  0
  5 34  1  0  0  0  0
 10 35  1  0  0  0  0
 15 36  1  0  0  0  0
 16 37  1  0  0  0  0
 18 38  1  0  0  0  0
 19 39  1  0  0  0  0
 21 40  1  0  0  0  0
 24 41  1  0  0  0  0
 25 42  1  0  0  0  0
 25 43  1  0  0  0  0
 25 44  1  0  0  0  0
 26 45  1  0  0  0  0
 26 46  1  0  0  0  0
 27 47  1  0  0  0  0
 28 48  1  0  0  0  0
 28 49  1  0  0  0  0
 29 50  1  0  0  0  0
M  END
> <Name>
35

> <IC50[uM]>
0.004

$$$$
35
  -OEChem-05192314333D
 Structure written by MMmdl.
 50 54  0     1  0  0  0  0  0999 V2000
   -6.3895   12.3678  -12.0373 C   0  0  0  0  0  0  0  0  0  0  0  0
   -6.4824   11.8098  -10.7511 C   0  0  0  0  0  0  0  0  0  0  0  0
   -7.7271   10.5745  -13.0290 C   0  0  0  0  0  0  0  0  0  0  0  0
   -7.0179   11.7711  -13.1287 C   0  0  0  0  0  0  0  0  0  0  0  0
   -7.8170   10.0145  -11.7522 C   0  0  3  0  0  0  0  0  0  0  0  0
   -7.2238   10.6236  -10.6024 C   0  0  3  0  0  0  0  0  0  0  0  0
   -7.6044    9.7508   -9.5065 C   0  0  0  0  0  0  0  0  0  0  0  0
   -8.2828    8.7443   -9.9813 N   0  0  0  0  0  0  0  0  0  0  0  0
   -8.4172    8.8704  -11.2949 N   0  0  0  0  0  0  0  0  0  0  0  0
   -7.3303    9.8854   -8.0203 C   0  0  0  0  0  0  0  0  0  0  0  0
   -4.3418   13.6528  -11.7950 N   0  0  0  0  0  0  0  0  0  0  0  0
   -5.6106   13.6402  -12.2589 C   0  0  0  0  0  0  0  0  0  0  0  0
   -6.1045   14.5768  -12.8828 O   0  0  0  0  0  0  0  0  0  0  0  0
   -5.9605   10.4846   -7.7337 C   0  0  0  0  0  0  0  0  0  0  0  0
   -4.8084    9.7674   -8.0514 C   0  0  0  0  0  0  0  0  0  0  0  0
   -3.5547   10.3189   -7.8020 C   0  0  0  0  0  0  0  0  0  0  0  0
   -3.4471   11.5931   -7.2348 C   0  0  0  0  0  0  0  0  0  0  0  0
   -4.6026   12.3073   -6.9145 C   0  0  0  0  0  0  0  0  0  0  0  0
   -5.8562   11.7556   -7.1614 C   0  0  0  0  0  0  0  0  0  0  0  0
   -2.1021   12.1835   -6.9708 C   0  0  0  0  0  0  0  0  0  0  0  0
   -1.7710   13.4390   -6.4702 C   0  0  0  0  0  0  0  0  0  0  0  0
   -0.4354   13.4950   -6.4103 N   0  0  0  0  0  0  0  0  0  0  0  0
    0.1709   12.4112   -6.8070 N   0  0  0  0  0  0  0  0  0  0  0  0
   -0.8030   11.5943   -7.1763 C   0  0  0  0  0  0  0  0  0  0  0  0
    0.3771   14.6141   -5.9576 C   0  0  0  0  0  0  0  0  0  0  0  0
   -3.4422   12.5360  -11.3947 C   0  0  0  0  0  0  0  0  0  0  0  0
   -2.3230   13.6139  -11.4067 C   0  0  0  0  0  0  0  0  0  0  0  0
   -3.2958   14.6820  -11.9593 C   0  0  0  0  0  0  0  0  0  0  0  0
   -1.7380   13.9356  -10.1565 O   0  0  0  0  0  0  0  0  0  0  0  0
   -6.0005   12.2762   -9.9046 H   0  0  0  0  0  0  0  0  0  0  0  0
   -8.1812   10.1071  -13.8902 H   0  0  0  0  0  0  0  0  0  0  0  0
   -6.9530   12.2555  -14.0918 H   0  0  0  0  0  0  0  0  0  0  0  0
   -8.7459   10.5752  -11.5709 H   0  0  0  0  0  0  0  0  0  0  0  0
   -6.3101   10.0314  -10.7584 H   0  0  0  0  0  0  0  0  0  0  0  0
   -8.0288    9.5892   -7.2517 H   0  0  0  0  0  0  0  0  0  0  0  0
   -4.8882    8.7841   -8.4909 H   0  0  0  0  0  0  0  0  0  0  0  0
   -2.6627    9.7615   -8.0471 H   0  0  0  0  0  0  0  0  0  0  0  0
   -4.5238   13.2903   -6.4741 H   0  0  0  0  0  0  0  0  0  0  0  0
   -6.7487   12.3097   -6.9107 H   0  0  0  0  0  0  0  0  0  0  0  0
   -2.4606   14.2195   -6.1845 H   0  0  0  0  0  0  0  0  0  0  0  0
   -0.6435   10.6063   -7.5823 H   0  0  0  0  0  0  0  0  0  0  0  0
    1.4419   14.3470   -6.0280 H   0  0  0  0  0  0  0  0  0  0  0  0
    0.1769   15.4918   -6.5897 H   0  0  0  0  0  0  0  0  0  0  0  0
    0.1266   14.8499   -4.9128 H   0  0  0  0  0  0  0  0  0  0  0  0
   -3.6551   12.0930  -10.4106 H   0  0  0  0  0  0  0  0  0  0  0  0
   -3.3293   11.7354  -12.1405 H   0  0  0  0  0  0  0  0  0  0  0  0
   -1.5662   13.3629  -12.1645 H   0  0  0  0  0  0  0  0  0  0  0  0
   -3.1063   14.9918  -12.9976 H   0  0  0  0  0  0  0  0  0  0  0  0
   -3.4165   15.5738  -11.3267 H   0  0  0  0  0  0  0  0  0  0  0  0
   -1.0709   14.6005  -10.2803 H   0  0  0  0  0  0  0  0  0  0  0  0
  1  2  2  0  0  0  0
  1  4  1  0  0  0  0
  1 12  1  0  0  0  0
  2  6  1  0  0  0  0
  3  4  2  0  0  0  0
  3  5  1  0  0  0  0
  5  6  1  0  0  0  0
  5  9  1  0  0  0  0
  6  7  1  0  0  0  0
  7  8  1  0  0  0  0
  7 10  2  3  0  0  0
  8  9  2  0  0  0  0
 10 14  1  0  0  0  0
 11 12  1  0  0  0  0
 11 26  1  0  0  0  0
 11 28  1  0  0  0  0
 12 13  2  0  0  0  0
 14 15  2  0  0  0  0
 14 19  1  0  0  0  0
 15 16  1  0  0  0  0
 16 17  2  0  0  0  0
 17 18  1  0  0  0  0
 17 20  1  0  0  0  0
 18 19  2  0  0  0  0
 20 21  2  0  0  0  0
 20 24  1  0  0  0  0
 21 22  1  0  0  0  0
 22 23  1  0  0  0  0
 22 25  1  0  0  0  0
 23 24  2  0  0  0  0
 26 27  1  0  0  0  0
 27 28  1  0  0  0  0
 27 29  1  0  0  0  0
  2 30  1  0  0  0  0
  3 31  1  0  0  0  0
  4 32  1  0  0  0  0
  5 33  1  0  0  0  0
  6 34  1  0  0  0  0
 10 35  1  0  0  0  0
 15 36  1  0  0  0  0
 16 37  1  0  0  0  0
 18 38  1  0  0  0  0
 19 39  1  0  0  0  0
 21 40  1  0  0  0  0
 24 41  1  0  0  0  0
 25 42  1  0  0  0  0
 25 43  1  0  0  0  0
 25 44  1  0  0  0  0
 26 45  1  0  0  0  0
 26 46  1  0  0  0  0
 27 47  1  0  0  0  0
 28 48  1  0  0  0  0
 28 49  1  0  0  0  0
 29 50  1  0  0  0  0
M  END
> <Name>
35

> <IC50[uM]>
0.004

$$$$
35
  -OEChem-05192314333D
 Structure written by MMmdl.
 50 54  0     1  0  0  0  0  0999 V2000
   -6.3895   12.3678  -12.0373 C   0  0  0  0  0  0  0  0  0  0  0  0
   -6.4824   11.8098  -10.7511 C   0  0  0  0  0  0  0  0  0  0  0  0
   -7.7271   10.5745  -13.0290 C   0  0  0  0  0  0  0  0  0  0  0  0
   -7.0179   11.7711  -13.1287 C   0  0  0  0  0  0  0  0  0  0  0  0
   -7.8170   10.0145  -11.7522 C   0  0  3  0  0  0  0  0  0  0  0  0
   -7.2238   10.6236  -10.6024 C   0  0  0  0  0  0  0  0  0  0  0  0
   -7.6044    9.7508   -9.5065 C   0  0  0  0  0  0  0  0  0  0  0  0
   -8.2828    8.7443   -9.9813 N   0  0  0  0  0  0  0  0  0  0  0  0
   -8.4172    8.8704  -11.2949 N   0  0  0  0  0  0  0  0  0  0  0  0
   -7.3303    9.8854   -8.0203 C   0  0  0  0  0  0  0  0  0  0  0  0
   -4.3418   13.6528  -11.7950 N   0  0  0  0  0  0  0  0  0  0  0  0
   -5.6106   13.6402  -12.2589 C   0  0  0  0  0  0  0  0  0  0  0  0
   -6.1045   14.5768  -12.8828 O   0  0  0  0  0  0  0  0  0  0  0  0
   -5.9605   10.4846   -7.7337 C   0  0  0  0  0  0  0  0  0  0  0  0
   -4.8084    9.7674   -8.0514 C   0  0  0  0  0  0  0  0  0  0  0  0
   -3.5547   10.3189   -7.8020 C   0  0  0  0  0  0  0  0  0  0  0  0
   -3.4471   11.5931   -7.2348 C   0  0  0  0  0  0  0  0  0  0  0  0
   -4.6026   12.3073   -6.9145 C   0  0  0  0  0  0  0  0  0  0  0  0
   -5.8562   11.7556   -7.1614 C   0  0  0  0  0  0  0  0  0  0  0  0
   -2.1021   12.1835   -6.9708 C   0  0  0  0  0  0  0  0  0  0  0  0
   -1.7710   13.4390   -6.4702 C   0  0  0  0  0  0  0  0  0  0  0  0
   -0.4354   13.4950   -6.4103 N   0  0  0  0  0  0  0  0  0  0  0  0
    0.1709   12.4112   -6.8070 N   0  0  0  0  0  0  0  0  0  0  0  0
   -0.8030   11.5943   -7.1763 C   0  0  0  0  0  0  0  0  0  0  0  0
    0.3771   14.6141   -5.9576 C   0  0  0  0  0  0  0  0  0  0  0  0
   -3.4422   12.5360  -11.3947 C   0  0  0  0  0  0  0  0  0  0  0  0
   -2.3230   13.6139  -11.4067 C   0  0  0  0  0  0  0  0  0  0  0  0
   -3.2958   14.6820  -11.9593 C   0  0  0  0  0  0  0  0  0  0  0  0
   -1.7380   13.9356  -10.1565 O   0  0  0  0  0  0  0  0  0  0  0  0
   -6.0005   12.2762   -9.9046 H   0  0  0  0  0  0  0  0  0  0  0  0
   -8.7506   10.7604  -13.3866 H   0  0  0  0  0  0  0  0  0  0  0  0
   -7.2377    9.8389  -13.6842 H   0  0  0  0  0  0  0  0  0  0  0  0
   -6.9530   12.2555  -14.0918 H   0  0  0  0  0  0  0  0  0  0  0  0
   -8.7459   10.5752  -11.5709 H   0  0  0  0  0  0  0  0  0  0  0  0
   -8.0288    9.5892   -7.2517 H   0  0  0  0  0  0  0  0  0  0  0  0
   -4.8882    8.7841   -8.4909 H   0  0  0  0  0  0  0  0  0  0  0  0
   -2.6627    9.7615   -8.0471 H   0  0  0  0  0  0  0  0  0  0  0  0
   -4.5238   13.2903   -6.4741 H   0  0  0  0  0  0  0  0  0  0  0  0
   -6.7487   12.3097   -6.9107 H   0  0  0  0  0  0  0  0  0  0  0  0
   -2.4606   14.2195   -6.1845 H   0  0  0  0  0  0  0  0  0  0  0  0
   -0.6435   10.6063   -7.5823 H   0  0  0  0  0  0  0  0  0  0  0  0
    1.4419   14.3470   -6.0280 H   0  0  0  0  0  0  0  0  0  0  0  0
    0.1769   15.4918   -6.5897 H   0  0  0  0  0  0  0  0  0  0  0  0
    0.1266   14.8499   -4.9128 H   0  0  0  0  0  0  0  0  0  0  0  0
   -3.6551   12.0930  -10.4106 H   0  0  0  0  0  0  0  0  0  0  0  0
   -3.3293   11.7354  -12.1405 H   0  0  0  0  0  0  0  0  0  0  0  0
   -1.5662   13.3629  -12.1645 H   0  0  0  0  0  0  0  0  0  0  0  0
   -3.1063   14.9918  -12.9976 H   0  0  0  0  0  0  0  0  0  0  0  0
   -3.4165   15.5738  -11.3267 H   0  0  0  0  0  0  0  0  0  0  0  0
   -1.0709   14.6005  -10.2803 H   0  0  0  0  0  0  0  0  0  0  0  0
  1  2  1  0  0  0  0
  1  4  2  0  0  0  0
  1 12  1  0  0  0  0
  2  6  2  0  0  0  0
  3  4  1  0  0  0  0
  3  5  1  0  0  0  0
  5  6  1  0  0  0  0
  5  9  1  0  0  0  0
  6  7  1  0  0  0  0
  7  8  1  0  0  0  0
  7 10  2  3  0  0  0
  8  9  2  0  0  0  0
 10 14  1  0  0  0  0
 11 12  1  0  0  0  0
 11 26  1  0  0  0  0
 11 28  1  0  0  0  0
 12 13  2  0  0  0  0
 14 15  2  0  0  0  0
 14 19  1  0  0  0  0
 15 16  1  0  0  0  0
 16 17  2  0  0  0  0
 17 18  1  0  0  0  0
 17 20  1  0  0  0  0
 18 19  2  0  0  0  0
 20 21  2  0  0  0  0
 20 24  1  0  0  0  0
 21 22  1  0  0  0  0
 22 23  1  0  0  0  0
 22 25  1  0  0  0  0
 23 24  2  0  0  0  0
 26 27  1  0  0  0  0
 27 28  1  0  0  0  0
 27 29  1  0  0  0  0
  2 30  1  0  0  0  0
  3 31  1  0  0  0  0
  3 32  1  0  0  0  0
  4 33  1  0  0  0  0
  5 34  1  0  0  0  0
 10 35  1  0  0  0  0
 15 36  1  0  0  0  0
 16 37  1  0  0  0  0
 18 38  1  0  0  0  0
 19 39  1  0  0  0  0
 21 40  1  0  0  0  0
 24 41  1  0  0  0  0
 25 42  1  0  0  0  0
 25 43  1  0  0  0  0
 25 44  1  0  0  0  0
 26 45  1  0  0  0  0
 26 46  1  0  0  0  0
 27 47  1  0  0  0  0
 28 48  1  0  0  0  0
 28 49  1  0  0  0  0
 29 50  1  0  0  0  0
M  END
> <Name>
35

> <IC50[uM]>
0.004

$$$$
35
  -OEChem-05192314333D
 Structure written by MMmdl.
 50 54  0     1  0  0  0  0  0999 V2000
   -6.3895   12.3678  -12.0373 C   0  0  0  0  0  0  0  0  0  0  0  0
   -6.4824   11.8098  -10.7511 C   0  0  0  0  0  0  0  0  0  0  0  0
   -7.7271   10.5745  -13.0290 C   0  0  0  0  0  0  0  0  0  0  0  0
   -7.0179   11.7711  -13.1287 C   0  0  0  0  0  0  0  0  0  0  0  0
   -7.8170   10.0145  -11.7522 C   0  0  0  0  0  0  0  0  0  0  0  0
   -7.2238   10.6236  -10.6024 C   0  0  0  0  0  0  0  0  0  0  0  0
   -7.6044    9.7508   -9.5065 C   0  0  0  0  0  0  0  0  0  0  0  0
   -8.2828    8.7443   -9.9813 N   0  0  0  0  0  0  0  0  0  0  0  0
   -8.4172    8.8704  -11.2949 N   0  0  0  0  0  0  0  0  0  0  0  0
   -7.3303    9.8854   -8.0203 C   0  0  0  0  0  0  0  0  0  0  0  0
   -4.3418   13.6528  -11.7950 N   0  0  0  0  0  0  0  0  0  0  0  0
   -5.6106   13.6402  -12.2589 C   0  0  0  0  0  0  0  0  0  0  0  0
   -6.1045   14.5768  -12.8828 O   0  0  0  0  0  0  0  0  0  0  0  0
   -5.9605   10.4846   -7.7337 C   0  0  0  0  0  0  0  0  0  0  0  0
   -4.8084    9.7674   -8.0514 C   0  0  0  0  0  0  0  0  0  0  0  0
   -3.5547   10.3189   -7.8020 C   0  0  0  0  0  0  0  0  0  0  0  0
   -3.4471   11.5931   -7.2348 C   0  0  3  0  0  0  0  0  0  0  0  0
   -4.6026   12.3073   -6.9145 C   0  0  0  0  0  0  0  0  0  0  0  0
   -5.8562   11.7556   -7.1614 C   0  0  0  0  0  0  0  0  0  0  0  0
   -2.1021   12.1835   -6.9708 C   0  0  0  0  0  0  0  0  0  0  0  0
   -1.7710   13.4390   -6.4702 C   0  0  0  0  0  0  0  0  0  0  0  0
   -0.4354   13.4950   -6.4103 N   0  0  0  0  0  0  0  0  0  0  0  0
    0.1709   12.4112   -6.8070 N   0  0  0  0  0  0  0  0  0  0  0  0
   -0.8030   11.5943   -7.1763 C   0  0  0  0  0  0  0  0  0  0  0  0
    0.3771   14.6141   -5.9576 C   0  0  0  0  0  0  0  0  0  0  0  0
   -3.4422   12.5360  -11.3947 C   0  0  0  0  0  0  0  0  0  0  0  0
   -2.3230   13.6139  -11.4067 C   0  0  0  0  0  0  0  0  0  0  0  0
   -3.2958   14.6820  -11.9593 C   0  0  0  0  0  0  0  0  0  0  0  0
   -1.7380   13.9356  -10.1565 O   0  0  0  0  0  0  0  0  0  0  0  0
   -6.0005   12.2762   -9.9046 H   0  0  0  0  0  0  0  0  0  0  0  0
   -8.1812   10.1071  -13.8902 H   0  0  0  0  0  0  0  0  0  0  0  0
   -6.9530   12.2555  -14.0918 H   0  0  0  0  0  0  0  0  0  0  0  0
   -8.0288    9.5892   -7.2517 H   0  0  0  0  0  0  0  0  0  0  0  0
   -4.8882    8.7841   -8.4909 H   0  0  0  0  0  0  0  0  0  0  0  0
   -3.0328    9.6260   -7.1255 H   0  0  0  0  0  0  0  0  0  0  0  0
   -3.0275   10.3562   -8.7667 H   0  0  0  0  0  0  0  0  0  0  0  0
   -3.4475   12.0413   -8.2394 H   0  0  0  0  0  0  0  0  0  0  0  0
   -4.5238   13.2903   -6.4741 H   0  0  0  0  0  0  0  0  0  0  0  0
   -6.7487   12.3097   -6.9107 H   0  0  0  0  0  0  0  0  0  0  0  0
   -2.4606   14.2195   -6.1845 H   0  0  0  0  0  0  0  0  0  0  0  0
   -0.6435   10.6063   -7.5823 H   0  0  0  0  0  0  0  0  0  0  0  0
    1.4419   14.3470   -6.0280 H   0  0  0  0  0  0  0  0  0  0  0  0
    0.1769   15.4918   -6.5897 H   0  0  0  0  0  0  0  0  0  0  0  0
    0.1266   14.8499   -4.9128 H   0  0  0  0  0  0  0  0  0  0  0  0
   -3.6551   12.0930  -10.4106 H   0  0  0  0  0  0  0  0  0  0  0  0
   -3.3293   11.7354  -12.1405 H   0  0  0  0  0  0  0  0  0  0  0  0
   -1.5662   13.3629  -12.1645 H   0  0  0  0  0  0  0  0  0  0  0  0
   -3.1063   14.9918  -12.9976 H   0  0  0  0  0  0  0  0  0  0  0  0
   -3.4165   15.5738  -11.3267 H   0  0  0  0  0  0  0  0  0  0  0  0
   -1.0709   14.6005  -10.2803 H   0  0  0  0  0  0  0  0  0  0  0  0
  1  2  2  0  0  0  0
  1  4  1  0  0  0  0
  1 12  1  0  0  0  0
  2  6  1  0  0  0  0
  3  4  2  0  0  0  0
  3  5  1  0  0  0  0
  5  6  2  0  0  0  0
  5  9  1  0  0  0  0
  6  7  1  0  0  0  0
  7  8  1  0  0  0  0
  7 10  2  3  0  0  0
  8  9  2  0  0  0  0
 10 14  1  0  0  0  0
 11 12  1  0  0  0  0
 11 26  1  0  0  0  0
 11 28  1  0  0  0  0
 12 13  2  0  0  0  0
 14 15  2  0  0  0  0
 14 19  1  0  0  0  0
 15 16  1  0  0  0  0
 16 17  1  0  0  0  0
 17 18  1  0  0  0  0
 17 20  1  0  0  0  0
 18 19  2  0  0  0  0
 20 21  2  0  0  0  0
 20 24  1  0  0  0  0
 21 22  1  0  0  0  0
 22 23  1  0  0  0  0
 22 25  1  0  0  0  0
 23 24  2  0  0  0  0
 26 27  1  0  0  0  0
 27 28  1  0  0  0  0
 27 29  1  0  0  0  0
  2 30  1  0  0  0  0
  3 31  1  0  0  0  0
  4 32  1  0  0  0  0
 10 33  1  0  0  0  0
 15 34  1  0  0  0  0
 16 35  1  0  0  0  0
 16 36  1  0  0  0  0
 17 37  1  0  0  0  0
 18 38  1  0  0  0  0
 19 39  1  0  0  0  0
 21 40  1  0  0  0  0
 24 41  1  0  0  0  0
 25 42  1  0  0  0  0
 25 43  1  0  0  0  0
 25 44  1  0  0  0  0
 26 45  1  0  0  0  0
 26 46  1  0  0  0  0
 27 47  1  0  0  0  0
 28 48  1  0  0  0  0
 28 49  1  0  0  0  0
 29 50  1  0  0  0  0
M  END
> <Name>
35

> <IC50[uM]>
0.004

$$$$
35
  -OEChem-05192314333D
 Structure written by MMmdl.
 50 54  0     1  0  0  0  0  0999 V2000
   -6.3895   12.3678  -12.0373 C   0  0  3  0  0  0  0  0  0  0  0  0
   -6.4824   11.8098  -10.7511 C   0  0  0  0  0  0  0  0  0  0  0  0
   -7.7271   10.5745  -13.0290 C   0  0  0  0  0  0  0  0  0  0  0  0
   -7.0179   11.7711  -13.1287 C   0  0  0  0  0  0  0  0  0  0  0  0
   -7.8170   10.0145  -11.7522 C   0  0  0  0  0  0  0  0  0  0  0  0
   -7.2238   10.6236  -10.6024 C   0  0  0  0  0  0  0  0  0  0  0  0
   -7.6044    9.7508   -9.5065 C   0  0  0  0  0  0  0  0  0  0  0  0
   -8.2828    8.7443   -9.9813 N   0  0  0  0  0  0  0  0  0  0  0  0
   -8.4172    8.8704  -11.2949 N   0  0  0  0  0  0  0  0  0  0  0  0
   -7.3303    9.8854   -8.0203 C   0  0  0  0  0  0  0  0  0  0  0  0
   -4.3418   13.6528  -11.7950 N   0  0  0  0  0  0  0  0  0  0  0  0
   -5.6106   13.6402  -12.2589 C   0  0  0  0  0  0  0  0  0  0  0  0
   -6.1045   14.5768  -12.8828 O   0  0  0  0  0  0  0  0  0  0  0  0
   -5.9605   10.4846   -7.7337 C   0  0  0  0  0  0  0  0  0  0  0  0
   -4.8084    9.7674   -8.0514 C   0  0  0  0  0  0  0  0  0  0  0  0
   -3.5547   10.3189   -7.8020 C   0  0  0  0  0  0  0  0  0  0  0  0
   -3.4471   11.5931   -7.2348 C   0  0  0  0  0  0  0  0  0  0  0  0
   -4.6026   12.3073   -6.9145 C   0  0  0  0  0  0  0  0  0  0  0  0
   -5.8562   11.7556   -7.1614 C   0  0  0  0  0  0  0  0  0  0  0  0
   -2.1021   12.1835   -6.9708 C   0  0  0  0  0  0  0  0  0  0  0  0
   -1.7710   13.4390   -6.4702 C   0  0  0  0  0  0  0  0  0  0  0  0
   -0.4354   13.4950   -6.4103 N   0  0  0  0  0  0  0  0  0  0  0  0
    0.1709   12.4112   -6.8070 N   0  0  0  0  0  0  0  0  0  0  0  0
   -0.8030   11.5943   -7.1763 C   0  0  0  0  0  0  0  0  0  0  0  0
    0.3771   14.6141   -5.9576 C   0  0  0  0  0  0  0  0  0  0  0  0
   -3.4422   12.5360  -11.3947 C   0  0  0  0  0  0  0  0  0  0  0  0
   -2.3230   13.6139  -11.4067 C   0  0  0  0  0  0  0  0  0  0  0  0
   -3.2958   14.6820  -11.9593 C   0  0  0  0  0  0  0  0  0  0  0  0
   -1.7380   13.9356  -10.1565 O   0  0  0  0  0  0  0  0  0  0  0  0
   -5.4830   11.7758  -12.2318 H   0  0  0  0  0  0  0  0  0  0  0  0
   -6.0005   12.2762   -9.9046 H   0  0  0  0  0  0  0  0  0  0  0  0
   -8.1812   10.1071  -13.8902 H   0  0  0  0  0  0  0  0  0  0  0  0
   -7.7299   12.5156  -13.5144 H   0  0  0  0  0  0  0  0  0  0  0  0
   -6.2295   11.5963  -13.8757 H   0  0  0  0  0  0  0  0  0  0  0  0
   -8.0288    9.5892   -7.2517 H   0  0  0  0  0  0  0  0  0  0  0  0
   -4.8882    8.7841   -8.4909 H   0  0  0  0  0  0  0  0  0  0  0  0
   -2.6627    9.7615   -8.0471 H   0  0  0  0  0  0  0  0  0  0  0  0
   -4.5238   13.2903   -6.4741 H   0  0  0  0  0  0  0  0  0  0  0  0
   -6.7487   12.3097   -6.9107 H   0  0  0  0  0  0  0  0  0  0  0  0
   -2.4606   14.2195   -6.1845 H   0  0  0  0  0  0  0  0  0  0  0  0
   -0.6435   10.6063   -7.5823 H   0  0  0  0  0  0  0  0  0  0  0  0
    1.4419   14.3470   -6.0280 H   0  0  0  0  0  0  0  0  0  0  0  0
    0.1769   15.4918   -6.5897 H   0  0  0  0  0  0  0  0  0  0  0  0
    0.1266   14.8499   -4.9128 H   0  0  0  0  0  0  0  0  0  0  0  0
   -3.6551   12.0930  -10.4106 H   0  0  0  0  0  0  0  0  0  0  0  0
   -3.3293   11.7354  -12.1405 H   0  0  0  0  0  0  0  0  0  0  0  0
   -1.5662   13.3629  -12.1645 H   0  0  0  0  0  0  0  0  0  0  0  0
   -3.1063   14.9918  -12.9976 H   0  0  0  0  0  0  0  0  0  0  0  0
   -3.4165   15.5738  -11.3267 H   0  0  0  0  0  0  0  0  0  0  0  0
   -1.0709   14.6005  -10.2803 H   0  0  0  0  0  0  0  0  0  0  0  0
  1  2  1  0  0  0  0
  1  4  1  0  0  0  0
  1 12  1  0  0  0  0
  2  6  2  0  0  0  0
  3  4  1  0  0  0  0
  3  5  2  0  0  0  0
  5  6  1  0  0  0  0
  5  9  1  0  0  0  0
  6  7  1  0  0  0  0
  7  8  1  0  0  0  0
  7 10  2  3  0  0  0
  8  9  2  0  0  0  0
 10 14  1  0  0  0  0
 11 12  1  0  0  0  0
 11 26  1  0  0  0  0
 11 28  1  0  0  0  0
 12 13  2  0  0  0  0
 14 15  2  0  0  0  0
 14 19  1  0  0  0  0
 15 16  1  0  0  0  0
 16 17  2  0  0  0  0
 17 18  1  0  0  0  0
 17 20  1  0  0  0  0
 18 19  2  0  0  0  0
 20 21  2  0  0  0  0
 20 24  1  0  0  0  0
 21 22  1  0  0  0  0
 22 23  1  0  0  0  0
 22 25  1  0  0  0  0
 23 24  2  0  0  0  0
 26 27  1  0  0  0  0
 27 28  1  0  0  0  0
 27 29  1  0  0  0  0
  1 30  1  0  0  0  0
  2 31  1  0  0  0  0
  3 32  1  0  0  0  0
  4 33  1  0  0  0  0
  4 34  1  0  0  0  0
 10 35  1  0  0  0  0
 15 36  1  0  0  0  0
 16 37  1  0  0  0  0
 18 38  1  0  0  0  0
 19 39  1  0  0  0  0
 21 40  1  0  0  0  0
 24 41  1  0  0  0  0
 25 42  1  0  0  0  0
 25 43  1  0  0  0  0
 25 44  1  0  0  0  0
 26 45  1  0  0  0  0
 26 46  1  0  0  0  0
 27 47  1  0  0  0  0
 28 48  1  0  0  0  0
 28 49  1  0  0  0  0
 29 50  1  0  0  0  0
M  END
> <Name>
35

> <IC50[uM]>
0.004

$$$$
35
  -OEChem-05192314333D
 Structure written by MMmdl.
 50 54  0     1  0  0  0  0  0999 V2000
   -6.3895   12.3678  -12.0373 C   0  0  0  0  0  0  0  0  0  0  0  0
   -6.4824   11.8098  -10.7511 C   0  0  0  0  0  0  0  0  0  0  0  0
   -7.7271   10.5745  -13.0290 C   0  0  0  0  0  0  0  0  0  0  0  0
   -7.0179   11.7711  -13.1287 C   0  0  0  0  0  0  0  0  0  0  0  0
   -7.8170   10.0145  -11.7522 C   0  0  0  0  0  0  0  0  0  0  0  0
   -7.2238   10.6236  -10.6024 C   0  0  3  0  0  0  0  0  0  0  0  0
   -7.6044    9.7508   -9.5065 C   0  0  0  0  0  0  0  0  0  0  0  0
   -8.2828    8.7443   -9.9813 N   0  0  0  0  0  0  0  0  0  0  0  0
   -8.4172    8.8704  -11.2949 N   0  0  0  0  0  0  0  0  0  0  0  0
   -7.3303    9.8854   -8.0203 C   0  0  0  0  0  0  0  0  0  0  0  0
   -4.3418   13.6528  -11.7950 N   0  0  0  0  0  0  0  0  0  0  0  0
   -5.6106   13.6402  -12.2589 C   0  0  0  0  0  0  0  0  0  0  0  0
   -6.1045   14.5768  -12.8828 O   0  0  0  0  0  0  0  0  0  0  0  0
   -5.9605   10.4846   -7.7337 C   0  0  0  0  0  0  0  0  0  0  0  0
   -4.8084    9.7674   -8.0514 C   0  0  0  0  0  0  0  0  0  0  0  0
   -3.5547   10.3189   -7.8020 C   0  0  0  0  0  0  0  0  0  0  0  0
   -3.4471   11.5931   -7.2348 C   0  0  0  0  0  0  0  0  0  0  0  0
   -4.6026   12.3073   -6.9145 C   0  0  0  0  0  0  0  0  0  0  0  0
   -5.8562   11.7556   -7.1614 C   0  0  0  0  0  0  0  0  0  0  0  0
   -2.1021   12.1835   -6.9708 C   0  0  0  0  0  0  0  0  0  0  0  0
   -1.7710   13.4390   -6.4702 C   0  0  0  0  0  0  0  0  0  0  0  0
   -0.4354   13.4950   -6.4103 N   0  0  0  0  0  0  0  0  0  0  0  0
    0.1709   12.4112   -6.8070 N   0  0  0  0  0  0  0  0  0  0  0  0
   -0.8030   11.5943   -7.1763 C   0  0  0  0  0  0  0  0  0  0  0  0
    0.3771   14.6141   -5.9576 C   0  0  0  0  0  0  0  0  0  0  0  0
   -3.4422   12.5360  -11.3947 C   0  0  0  0  0  0  0  0  0  0  0  0
   -2.3230   13.6139  -11.4067 C   0  0  0  0  0  0  0  0  0  0  0  0
   -3.2958   14.6820  -11.9593 C   0  0  0  0  0  0  0  0  0  0  0  0
   -1.7380   13.9356  -10.1565 O   0  0  0  0  0  0  0  0  0  0  0  0
   -6.0005   12.2762   -9.9046 H   0  0  0  0  0  0  0  0  0  0  0  0
   -8.1812   10.1071  -13.8902 H   0  0  0  0  0  0  0  0  0  0  0  0
   -7.7299   12.5156  -13.5144 H   0  0  0  0  0  0  0  0  0  0  0  0
   -6.2295   11.5963  -13.8757 H   0  0  0  0  0  0  0  0  0  0  0  0
   -6.3101   10.0314  -10.7584 H   0  0  0  0  0  0  0  0  0  0  0  0
   -8.0288    9.5892   -7.2517 H   0  0  0  0  0  0  0  0  0  0  0  0
   -4.8882    8.7841   -8.4909 H   0  0  0  0  0  0  0  0  0  0  0  0
   -2.6627    9.7615   -8.0471 H   0  0  0  0  0  0  0  0  0  0  0  0
   -4.5238   13.2903   -6.4741 H   0  0  0  0  0  0  0  0  0  0  0  0
   -6.7487   12.3097   -6.9107 H   0  0  0  0  0  0  0  0  0  0  0  0
   -2.4606   14.2195   -6.1845 H   0  0  0  0  0  0  0  0  0  0  0  0
   -0.6435   10.6063   -7.5823 H   0  0  0  0  0  0  0  0  0  0  0  0
    1.4419   14.3470   -6.0280 H   0  0  0  0  0  0  0  0  0  0  0  0
    0.1769   15.4918   -6.5897 H   0  0  0  0  0  0  0  0  0  0  0  0
    0.1266   14.8499   -4.9128 H   0  0  0  0  0  0  0  0  0  0  0  0
   -3.6551   12.0930  -10.4106 H   0  0  0  0  0  0  0  0  0  0  0  0
   -3.3293   11.7354  -12.1405 H   0  0  0  0  0  0  0  0  0  0  0  0
   -1.5662   13.3629  -12.1645 H   0  0  0  0  0  0  0  0  0  0  0  0
   -3.1063   14.9918  -12.9976 H   0  0  0  0  0  0  0  0  0  0  0  0
   -3.4165   15.5738  -11.3267 H   0  0  0  0  0  0  0  0  0  0  0  0
   -1.0709   14.6005  -10.2803 H   0  0  0  0  0  0  0  0  0  0  0  0
  1  2  2  0  0  0  0
  1  4  1  0  0  0  0
  1 12  1  0  0  0  0
  2  6  1  0  0  0  0
  3  4  1  0  0  0  0
  3  5  2  0  0  0  0
  5  6  1  0  0  0  0
  5  9  1  0  0  0  0
  6  7  1  0  0  0  0
  7  8  1  0  0  0  0
  7 10  2  3  0  0  0
  8  9  2  0  0  0  0
 10 14  1  0  0  0  0
 11 12  1  0  0  0  0
 11 26  1  0  0  0  0
 11 28  1  0  0  0  0
 12 13  2  0  0  0  0
 14 15  2  0  0  0  0
 14 19  1  0  0  0  0
 15 16  1  0  0  0  0
 16 17  2  0  0  0  0
 17 18  1  0  0  0  0
 17 20  1  0  0  0  0
 18 19  2  0  0  0  0
 20 21  2  0  0  0  0
 20 24  1  0  0  0  0
 21 22  1  0  0  0  0
 22 23  1  0  0  0  0
 22 25  1  0  0  0  0
 23 24  2  0  0  0  0
 26 27  1  0  0  0  0
 27 28  1  0  0  0  0
 27 29  1  0  0  0  0
  2 30  1  0  0  0  0
  3 31  1  0  0  0  0
  4 32  1  0  0  0  0
  4 33  1  0  0  0  0
  6 34  1  0  0  0  0
 10 35  1  0  0  0  0
 15 36  1  0  0  0  0
 16 37  1  0  0  0  0
 18 38  1  0  0  0  0
 19 39  1  0  0  0  0
 21 40  1  0  0  0  0
 24 41  1  0  0  0  0
 25 42  1  0  0  0  0
 25 43  1  0  0  0  0
 25 44  1  0  0  0  0
 26 45  1  0  0  0  0
 26 46  1  0  0  0  0
 27 47  1  0  0  0  0
 28 48  1  0  0  0  0
 28 49  1  0  0  0  0
 29 50  1  0  0  0  0
M  END
> <Name>
35

> <IC50[uM]>
0.004

$$$$
35
  -OEChem-05192314333D
 Structure written by MMmdl.
 50 54  0     0  0  0  0  0  0999 V2000
   -6.3895   12.3678  -12.0373 C   0  0  0  0  0  0  0  0  0  0  0  0
   -6.4824   11.8098  -10.7511 C   0  0  0  0  0  0  0  0  0  0  0  0
   -7.7271   10.5745  -13.0290 C   0  0  0  0  0  0  0  0  0  0  0  0
   -7.0179   11.7711  -13.1287 C   0  0  0  0  0  0  0  0  0  0  0  0
   -7.8170   10.0145  -11.7522 C   0  0  0  0  0  0  0  0  0  0  0  0
   -7.2238   10.6236  -10.6024 C   0  0  0  0  0  0  0  0  0  0  0  0
   -7.6044    9.7508   -9.5065 C   0  0  0  0  0  0  0  0  0  0  0  0
   -8.2828    8.7443   -9.9813 N   0  0  0  0  0  0  0  0  0  0  0  0
   -8.4172    8.8704  -11.2949 N   0  0  0  0  0  0  0  0  0  0  0  0
   -7.3303    9.8854   -8.0203 C   0  0  0  0  0  0  0  0  0  0  0  0
   -4.3418   13.6528  -11.7950 N   0  0  0  0  0  0  0  0  0  0  0  0
   -5.6106   13.6402  -12.2589 C   0  0  0  0  0  0  0  0  0  0  0  0
   -6.1045   14.5768  -12.8828 O   0  0  0  0  0  0  0  0  0  0  0  0
   -5.9605   10.4846   -7.7337 C   0  0  0  0  0  0  0  0  0  0  0  0
   -4.8084    9.7674   -8.0514 C   0  0  0  0  0  0  0  0  0  0  0  0
   -3.5547   10.3189   -7.8020 C   0  0  0  0  0  0  0  0  0  0  0  0
   -3.4471   11.5931   -7.2348 C   0  0  0  0  0  0  0  0  0  0  0  0
   -4.6026   12.3073   -6.9145 C   0  0  0  0  0  0  0  0  0  0  0  0
   -5.8562   11.7556   -7.1614 C   0  0  0  0  0  0  0  0  0  0  0  0
   -2.1021   12.1835   -6.9708 C   0  0  0  0  0  0  0  0  0  0  0  0
   -1.7710   13.4390   -6.4702 C   0  0  0  0  0  0  0  0  0  0  0  0
   -0.4354   13.4950   -6.4103 N   0  0  0  0  0  0  0  0  0  0  0  0
    0.1709   12.4112   -6.8070 N   0  0  0  0  0  0  0  0  0  0  0  0
   -0.8030   11.5943   -7.1763 C   0  0  0  0  0  0  0  0  0  0  0  0
    0.3771   14.6141   -5.9576 C   0  0  0  0  0  0  0  0  0  0  0  0
   -3.4422   12.5360  -11.3947 C   0  0  0  0  0  0  0  0  0  0  0  0
   -2.3230   13.6139  -11.4067 C   0  0  0  0  0  0  0  0  0  0  0  0
   -3.2958   14.6820  -11.9593 C   0  0  0  0  0  0  0  0  0  0  0  0
   -1.7380   13.9356  -10.1565 O   0  0  0  0  0  0  0  0  0  0  0  0
   -6.0005   12.2762   -9.9046 H   0  0  0  0  0  0  0  0  0  0  0  0
   -8.7506   10.7604  -13.3866 H   0  0  0  0  0  0  0  0  0  0  0  0
   -7.2377    9.8389  -13.6842 H   0  0  0  0  0  0  0  0  0  0  0  0
   -7.7299   12.5156  -13.5144 H   0  0  0  0  0  0  0  0  0  0  0  0
   -6.2295   11.5963  -13.8757 H   0  0  0  0  0  0  0  0  0  0  0  0
   -8.0288    9.5892   -7.2517 H   0  0  0  0  0  0  0  0  0  0  0  0
   -4.8882    8.7841   -8.4909 H   0  0  0  0  0  0  0  0  0  0  0  0
   -2.6627    9.7615   -8.0471 H   0  0  0  0  0  0  0  0  0  0  0  0
   -4.5238   13.2903   -6.4741 H   0  0  0  0  0  0  0  0  0  0  0  0
   -6.7487   12.3097   -6.9107 H   0  0  0  0  0  0  0  0  0  0  0  0
   -2.4606   14.2195   -6.1845 H   0  0  0  0  0  0  0  0  0  0  0  0
   -0.6435   10.6063   -7.5823 H   0  0  0  0  0  0  0  0  0  0  0  0
    1.4419   14.3470   -6.0280 H   0  0  0  0  0  0  0  0  0  0  0  0
    0.1769   15.4918   -6.5897 H   0  0  0  0  0  0  0  0  0  0  0  0
    0.1266   14.8499   -4.9128 H   0  0  0  0  0  0  0  0  0  0  0  0
   -3.6551   12.0930  -10.4106 H   0  0  0  0  0  0  0  0  0  0  0  0
   -3.3293   11.7354  -12.1405 H   0  0  0  0  0  0  0  0  0  0  0  0
   -1.5662   13.3629  -12.1645 H   0  0  0  0  0  0  0  0  0  0  0  0
   -3.1063   14.9918  -12.9976 H   0  0  0  0  0  0  0  0  0  0  0  0
   -3.4165   15.5738  -11.3267 H   0  0  0  0  0  0  0  0  0  0  0  0
   -1.0709   14.6005  -10.2803 H   0  0  0  0  0  0  0  0  0  0  0  0
  1  2  2  0  0  0  0
  1  4  1  0  0  0  0
  1 12  1  0  0  0  0
  2  6  1  0  0  0  0
  3  4  1  0  0  0  0
  3  5  1  0  0  0  0
  5  6  2  0  0  0  0
  5  9  1  0  0  0  0
  6  7  1  0  0  0  0
  7  8  1  0  0  0  0
  7 10  2  3  0  0  0
  8  9  2  0  0  0  0
 10 14  1  0  0  0  0
 11 12  1  0  0  0  0
 11 26  1  0  0  0  0
 11 28  1  0  0  0  0
 12 13  2  0  0  0  0
 14 15  2  0  0  0  0
 14 19  1  0  0  0  0
 15 16  1  0  0  0  0
 16 17  2  0  0  0  0
 17 18  1  0  0  0  0
 17 20  1  0  0  0  0
 18 19  2  0  0  0  0
 20 21  2  0  0  0  0
 20 24  1  0  0  0  0
 21 22  1  0  0  0  0
 22 23  1  0  0  0  0
 22 25  1  0  0  0  0
 23 24  2  0  0  0  0
 26 27  1  0  0  0  0
 27 28  1  0  0  0  0
 27 29  1  0  0  0  0
  2 30  1  0  0  0  0
  3 31  1  0  0  0  0
  3 32  1  0  0  0  0
  4 33  1  0  0  0  0
  4 34  1  0  0  0  0
 10 35  1  0  0  0  0
 15 36  1  0  0  0  0
 16 37  1  0  0  0  0
 18 38  1  0  0  0  0
 19 39  1  0  0  0  0
 21 40  1  0  0  0  0
 24 41  1  0  0  0  0
 25 42  1  0  0  0  0
 25 43  1  0  0  0  0
 25 44  1  0  0  0  0
 26 45  1  0  0  0  0
 26 46  1  0  0  0  0
 27 47  1  0  0  0  0
 28 48  1  0  0  0  0
 28 49  1  0  0  0  0
 29 50  1  0  0  0  0
M  END
> <Name>
35

> <IC50[uM]>
0.004

$$$$
35
  -OEChem-05192314333D
 Structure written by MMmdl.
 50 54  0     1  0  0  0  0  0999 V2000
   -6.3895   12.3678  -12.0373 C   0  0  0  0  0  0  0  0  0  0  0  0
   -6.4824   11.8098  -10.7511 C   0  0  0  0  0  0  0  0  0  0  0  0
   -7.7271   10.5745  -13.0290 C   0  0  0  0  0  0  0  0  0  0  0  0
   -7.0179   11.7711  -13.1287 C   0  0  0  0  0  0  0  0  0  0  0  0
   -7.8170   10.0145  -11.7522 C   0  0  0  0  0  0  0  0  0  0  0  0
   -7.2238   10.6236  -10.6024 C   0  0  0  0  0  0  0  0  0  0  0  0
   -7.6044    9.7508   -9.5065 C   0  0  0  0  0  0  0  0  0  0  0  0
   -8.2828    8.7443   -9.9813 N   0  0  0  0  0  0  0  0  0  0  0  0
   -8.4172    8.8704  -11.2949 N   0  0  0  0  0  0  0  0  0  0  0  0
   -7.3303    9.8854   -8.0203 C   0  0  0  0  0  0  0  0  0  0  0  0
   -4.3418   13.6528  -11.7950 N   0  0  0  0  0  0  0  0  0  0  0  0
   -5.6106   13.6402  -12.2589 C   0  0  0  0  0  0  0  0  0  0  0  0
   -6.1045   14.5768  -12.8828 O   0  0  0  0  0  0  0  0  0  0  0  0
   -5.9605   10.4846   -7.7337 C   0  0  3  0  0  0  0  0  0  0  0  0
   -4.8084    9.7674   -8.0514 C   0  0  0  0  0  0  0  0  0  0  0  0
   -3.5547   10.3189   -7.8020 C   0  0  0  0  0  0  0  0  0  0  0  0
   -3.4471   11.5931   -7.2348 C   0  0  0  0  0  0  0  0  0  0  0  0
   -4.6026   12.3073   -6.9145 C   0  0  0  0  0  0  0  0  0  0  0  0
   -5.8562   11.7556   -7.1614 C   0  0  0  0  0  0  0  0  0  0  0  0
   -2.1021   12.1835   -6.9708 C   0  0  0  0  0  0  0  0  0  0  0  0
   -1.7710   13.4390   -6.4702 C   0  0  0  0  0  0  0  0  0  0  0  0
   -0.4354   13.4950   -6.4103 N   0  0  0  0  0  0  0  0  0  0  0  0
    0.1709   12.4112   -6.8070 N   0  0  0  0  0  0  0  0  0  0  0  0
   -0.8030   11.5943   -7.1763 C   0  0  0  0  0  0  0  0  0  0  0  0
    0.3771   14.6141   -5.9576 C   0  0  0  0  0  0  0  0  0  0  0  0
   -3.4422   12.5360  -11.3947 C   0  0  0  0  0  0  0  0  0  0  0  0
   -2.3230   13.6139  -11.4067 C   0  0  0  0  0  0  0  0  0  0  0  0
   -3.2958   14.6820  -11.9593 C   0  0  0  0  0  0  0  0  0  0  0  0
   -1.7380   13.9356  -10.1565 O   0  0  0  0  0  0  0  0  0  0  0  0
   -6.0005   12.2762   -9.9046 H   0  0  0  0  0  0  0  0  0  0  0  0
   -8.1812   10.1071  -13.8902 H   0  0  0  0  0  0  0  0  0  0  0  0
   -6.9530   12.2555  -14.0918 H   0  0  0  0  0  0  0  0  0  0  0  0
   -8.0288    9.5892   -7.2517 H   0  0  0  0  0  0  0  0  0  0  0  0
   -5.9694   10.0313   -6.7315 H   0  0  0  0  0  0  0  0  0  0  0  0
   -4.8882    8.7841   -8.4909 H   0  0  0  0  0  0  0  0  0  0  0  0
   -2.6627    9.7615   -8.0471 H   0  0  0  0  0  0  0  0  0  0  0  0
   -4.5238   13.2903   -6.4741 H   0  0  0  0  0  0  0  0  0  0  0  0
   -6.3821   12.4502   -7.8329 H   0  0  0  0  0  0  0  0  0  0  0  0
   -6.3800   11.7126   -6.1951 H   0  0  0  0  0  0  0  0  0  0  0  0
   -2.4606   14.2195   -6.1845 H   0  0  0  0  0  0  0  0  0  0  0  0
   -0.6435   10.6063   -7.5823 H   0  0  0  0  0  0  0  0  0  0  0  0
    1.4419   14.3470   -6.0280 H   0  0  0  0  0  0  0  0  0  0  0  0
    0.1769   15.4918   -6.5897 H   0  0  0  0  0  0  0  0  0  0  0  0
    0.1266   14.8499   -4.9128 H   0  0  0  0  0  0  0  0  0  0  0  0
   -3.6551   12.0930  -10.4106 H   0  0  0  0  0  0  0  0  0  0  0  0
   -3.3293   11.7354  -12.1405 H   0  0  0  0  0  0  0  0  0  0  0  0
   -1.5662   13.3629  -12.1645 H   0  0  0  0  0  0  0  0  0  0  0  0
   -3.1063   14.9918  -12.9976 H   0  0  0  0  0  0  0  0  0  0  0  0
   -3.4165   15.5738  -11.3267 H   0  0  0  0  0  0  0  0  0  0  0  0
   -1.0709   14.6005  -10.2803 H   0  0  0  0  0  0  0  0  0  0  0  0
  1  2  2  0  0  0  0
  1  4  1  0  0  0  0
  1 12  1  0  0  0  0
  2  6  1  0  0  0  0
  3  4  2  0  0  0  0
  3  5  1  0  0  0  0
  5  6  2  0  0  0  0
  5  9  1  0  0  0  0
  6  7  1  0  0  0  0
  7  8  1  0  0  0  0
  7 10  2  3  0  0  0
  8  9  2  0  0  0  0
 10 14  1  0  0  0  0
 11 12  1  0  0  0  0
 11 26  1  0  0  0  0
 11 28  1  0  0  0  0
 12 13  2  0  0  0  0
 14 15  1  0  0  0  0
 14 19  1  0  0  0  0
 15 16  2  0  0  0  0
 16 17  1  0  0  0  0
 17 18  2  0  0  0  0
 17 20  1  0  0  0  0
 18 19  1  0  0  0  0
 20 21  2  0  0  0  0
 20 24  1  0  0  0  0
 21 22  1  0  0  0  0
 22 23  1  0  0  0  0
 22 25  1  0  0  0  0
 23 24  2  0  0  0  0
 26 27  1  0  0  0  0
 27 28  1  0  0  0  0
 27 29  1  0  0  0  0
  2 30  1  0  0  0  0
  3 31  1  0  0  0  0
  4 32  1  0  0  0  0
 10 33  1  0  0  0  0
 14 34  1  0  0  0  0
 15 35  1  0  0  0  0
 16 36  1  0  0  0  0
 18 37  1  0  0  0  0
 19 38  1  0  0  0  0
 19 39  1  0  0  0  0
 21 40  1  0  0  0  0
 24 41  1  0  0  0  0
 25 42  1  0  0  0  0
 25 43  1  0  0  0  0
 25 44  1  0  0  0  0
 26 45  1  0  0  0  0
 26 46  1  0  0  0  0
 27 47  1  0  0  0  0
 28 48  1  0  0  0  0
 28 49  1  0  0  0  0
 29 50  1  0  0  0  0
M  END
> <Name>
35

> <IC50[uM]>
0.004

$$$$
35
  -OEChem-05192314333D
 Structure written by MMmdl.
 50 54  0     1  0  0  0  0  0999 V2000
   -6.3895   12.3678  -12.0373 C   0  0  0  0  0  0  0  0  0  0  0  0
   -6.4824   11.8098  -10.7511 C   0  0  0  0  0  0  0  0  0  0  0  0
   -7.7271   10.5745  -13.0290 C   0  0  0  0  0  0  0  0  0  0  0  0
   -7.0179   11.7711  -13.1287 C   0  0  0  0  0  0  0  0  0  0  0  0
   -7.8170   10.0145  -11.7522 C   0  0  0  0  0  0  0  0  0  0  0  0
   -7.2238   10.6236  -10.6024 C   0  0  0  0  0  0  0  0  0  0  0  0
   -7.6044    9.7508   -9.5065 C   0  0  3  0  0  0  0  0  0  0  0  0
   -8.2828    8.7443   -9.9813 N   0  0  0  0  0  0  0  0  0  0  0  0
   -8.4172    8.8704  -11.2949 N   0  0  0  0  0  0  0  0  0  0  0  0
   -7.3303    9.8854   -8.0203 C   0  0  0  0  0  0  0  0  0  0  0  0
   -4.3418   13.6528  -11.7950 N   0  0  0  0  0  0  0  0  0  0  0  0
   -5.6106   13.6402  -12.2589 C   0  0  0  0  0  0  0  0  0  0  0  0
   -6.1045   14.5768  -12.8828 O   0  0  0  0  0  0  0  0  0  0  0  0
   -5.9605   10.4846   -7.7337 C   0  0  0  0  0  0  0  0  0  0  0  0
   -4.8084    9.7674   -8.0514 C   0  0  0  0  0  0  0  0  0  0  0  0
   -3.5547   10.3189   -7.8020 C   0  0  0  0  0  0  0  0  0  0  0  0
   -3.4471   11.5931   -7.2348 C   0  0  0  0  0  0  0  0  0  0  0  0
   -4.6026   12.3073   -6.9145 C   0  0  0  0  0  0  0  0  0  0  0  0
   -5.8562   11.7556   -7.1614 C   0  0  0  0  0  0  0  0  0  0  0  0
   -2.1021   12.1835   -6.9708 C   0  0  0  0  0  0  0  0  0  0  0  0
   -1.7710   13.4390   -6.4702 C   0  0  0  0  0  0  0  0  0  0  0  0
   -0.4354   13.4950   -6.4103 N   0  0  0  0  0  0  0  0  0  0  0  0
    0.1709   12.4112   -6.8070 N   0  0  0  0  0  0  0  0  0  0  0  0
   -0.8030   11.5943   -7.1763 C   0  0  0  0  0  0  0  0  0  0  0  0
    0.3771   14.6141   -5.9576 C   0  0  0  0  0  0  0  0  0  0  0  0
   -3.4422   12.5360  -11.3947 C   0  0  0  0  0  0  0  0  0  0  0  0
   -2.3230   13.6139  -11.4067 C   0  0  0  0  0  0  0  0  0  0  0  0
   -3.2958   14.6820  -11.9593 C   0  0  0  0  0  0  0  0  0  0  0  0
   -1.7380   13.9356  -10.1565 O   0  0  0  0  0  0  0  0  0  0  0  0
   -6.0005   12.2762   -9.9046 H   0  0  0  0  0  0  0  0  0  0  0  0
   -8.1812   10.1071  -13.8902 H   0  0  0  0  0  0  0  0  0  0  0  0
   -6.9530   12.2555  -14.0918 H   0  0  0  0  0  0  0  0  0  0  0  0
   -6.6701    9.1835   -9.6302 H   0  0  0  0  0  0  0  0  0  0  0  0
   -8.0288    9.5892   -7.2517 H   0  0  0  0  0  0  0  0  0  0  0  0
   -4.8882    8.7841   -8.4909 H   0  0  0  0  0  0  0  0  0  0  0  0
   -2.6627    9.7615   -8.0471 H   0  0  0  0  0  0  0  0  0  0  0  0
   -4.5238   13.2903   -6.4741 H   0  0  0  0  0  0  0  0  0  0  0  0
   -6.3821   12.4502   -7.8329 H   0  0  0  0  0  0  0  0  0  0  0  0
   -6.3800   11.7126   -6.1951 H   0  0  0  0  0  0  0  0  0  0  0  0
   -2.4606   14.2195   -6.1845 H   0  0  0  0  0  0  0  0  0  0  0  0
   -0.6435   10.6063   -7.5823 H   0  0  0  0  0  0  0  0  0  0  0  0
    1.4419   14.3470   -6.0280 H   0  0  0  0  0  0  0  0  0  0  0  0
    0.1769   15.4918   -6.5897 H   0  0  0  0  0  0  0  0  0  0  0  0
    0.1266   14.8499   -4.9128 H   0  0  0  0  0  0  0  0  0  0  0  0
   -3.6551   12.0930  -10.4106 H   0  0  0  0  0  0  0  0  0  0  0  0
   -3.3293   11.7354  -12.1405 H   0  0  0  0  0  0  0  0  0  0  0  0
   -1.5662   13.3629  -12.1645 H   0  0  0  0  0  0  0  0  0  0  0  0
   -3.1063   14.9918  -12.9976 H   0  0  0  0  0  0  0  0  0  0  0  0
   -3.4165   15.5738  -11.3267 H   0  0  0  0  0  0  0  0  0  0  0  0
   -1.0709   14.6005  -10.2803 H   0  0  0  0  0  0  0  0  0  0  0  0
  1  2  2  0  0  0  0
  1  4  1  0  0  0  0
  1 12  1  0  0  0  0
  2  6  1  0  0  0  0
  3  4  2  0  0  0  0
  3  5  1  0  0  0  0
  5  6  2  0  0  0  0
  5  9  1  0  0  0  0
  6  7  1  0  0  0  0
  7  8  1  0  0  0  0
  7 10  1  0  0  0  0
  8  9  2  0  0  0  0
 10 14  2  3  0  0  0
 11 12  1  0  0  0  0
 11 26  1  0  0  0  0
 11 28  1  0  0  0  0
 12 13  2  0  0  0  0
 14 15  1  0  0  0  0
 14 19  1  0  0  0  0
 15 16  2  0  0  0  0
 16 17  1  0  0  0  0
 17 18  2  0  0  0  0
 17 20  1  0  0  0  0
 18 19  1  0  0  0  0
 20 21  2  0  0  0  0
 20 24  1  0  0  0  0
 21 22  1  0  0  0  0
 22 23  1  0  0  0  0
 22 25  1  0  0  0  0
 23 24  2  0  0  0  0
 26 27  1  0  0  0  0
 27 28  1  0  0  0  0
 27 29  1  0  0  0  0
  2 30  1  0  0  0  0
  3 31  1  0  0  0  0
  4 32  1  0  0  0  0
  7 33  1  0  0  0  0
 10 34  1  0  0  0  0
 15 35  1  0  0  0  0
 16 36  1  0  0  0  0
 18 37  1  0  0  0  0
 19 38  1  0  0  0  0
 19 39  1  0  0  0  0
 21 40  1  0  0  0  0
 24 41  1  0  0  0  0
 25 42  1  0  0  0  0
 25 43  1  0  0  0  0
 25 44  1  0  0  0  0
 26 45  1  0  0  0  0
 26 46  1  0  0  0  0
 27 47  1  0  0  0  0
 28 48  1  0  0  0  0
 28 49  1  0  0  0  0
 29 50  1  0  0  0  0
M  END
> <Name>
35

> <IC50[uM]>
0.004

$$$$
35
  -OEChem-05192314333D
 Structure written by MMmdl.
 50 54  0     0  0  0  0  0  0999 V2000
   -6.3895   12.3678  -12.0373 C   0  0  0  0  0  0  0  0  0  0  0  0
   -6.4824   11.8098  -10.7511 C   0  0  0  0  0  0  0  0  0  0  0  0
   -7.7271   10.5745  -13.0290 C   0  0  0  0  0  0  0  0  0  0  0  0
   -7.0179   11.7711  -13.1287 C   0  0  0  0  0  0  0  0  0  0  0  0
   -7.8170   10.0145  -11.7522 C   0  0  0  0  0  0  0  0  0  0  0  0
   -7.2238   10.6236  -10.6024 C   0  0  0  0  0  0  0  0  0  0  0  0
   -7.6044    9.7508   -9.5065 C   0  0  0  0  0  0  0  0  0  0  0  0
   -8.2828    8.7443   -9.9813 N   0  0  0  0  0  0  0  0  0  0  0  0
   -8.4172    8.8704  -11.2949 N   0  0  0  0  0  0  0  0  0  0  0  0
   -7.3303    9.8854   -8.0203 C   0  0  0  0  0  0  0  0  0  0  0  0
   -4.3418   13.6528  -11.7950 N   0  0  0  0  0  0  0  0  0  0  0  0
   -5.6106   13.6402  -12.2589 C   0  0  0  0  0  0  0  0  0  0  0  0
   -6.1045   14.5768  -12.8828 O   0  0  0  0  0  0  0  0  0  0  0  0
   -5.9605   10.4846   -7.7337 C   0  0  0  0  0  0  0  0  0  0  0  0
   -4.8084    9.7674   -8.0514 C   0  0  0  0  0  0  0  0  0  0  0  0
   -3.5547   10.3189   -7.8020 C   0  0  0  0  0  0  0  0  0  0  0  0
   -3.4471   11.5931   -7.2348 C   0  0  0  0  0  0  0  0  0  0  0  0
   -4.6026   12.3073   -6.9145 C   0  0  0  0  0  0  0  0  0  0  0  0
   -5.8562   11.7556   -7.1614 C   0  0  0  0  0  0  0  0  0  0  0  0
   -2.1021   12.1835   -6.9708 C   0  0  0  0  0  0  0  0  0  0  0  0
   -1.7710   13.4390   -6.4702 C   0  0  0  0  0  0  0  0  0  0  0  0
   -0.4354   13.4950   -6.4103 N   0  0  0  0  0  0  0  0  0  0  0  0
    0.1709   12.4112   -6.8070 N   0  0  0  0  0  0  0  0  0  0  0  0
   -0.8030   11.5943   -7.1763 C   0  0  0  0  0  0  0  0  0  0  0  0
    0.3771   14.6141   -5.9576 C   0  0  0  0  0  0  0  0  0  0  0  0
   -3.4422   12.5360  -11.3947 C   0  0  0  0  0  0  0  0  0  0  0  0
   -2.3230   13.6139  -11.4067 C   0  0  0  0  0  0  0  0  0  0  0  0
   -3.2958   14.6820  -11.9593 C   0  0  0  0  0  0  0  0  0  0  0  0
   -1.7380   13.9356  -10.1565 O   0  0  0  0  0  0  0  0  0  0  0  0
   -6.0005   12.2762   -9.9046 H   0  0  0  0  0  0  0  0  0  0  0  0
   -8.1812   10.1071  -13.8902 H   0  0  0  0  0  0  0  0  0  0  0  0
   -6.9530   12.2555  -14.0918 H   0  0  0  0  0  0  0  0  0  0  0  0
   -8.0288    9.5892   -7.2517 H   0  0  0  0  0  0  0  0  0  0  0  0
   -4.8882    8.7841   -8.4909 H   0  0  0  0  0  0  0  0  0  0  0  0
   -3.0328    9.6260   -7.1255 H   0  0  0  0  0  0  0  0  0  0  0  0
   -3.0275   10.3562   -8.7667 H   0  0  0  0  0  0  0  0  0  0  0  0
   -4.5238   13.2903   -6.4741 H   0  0  0  0  0  0  0  0  0  0  0  0
   -6.3821   12.4502   -7.8329 H   0  0  0  0  0  0  0  0  0  0  0  0
   -6.3800   11.7126   -6.1951 H   0  0  0  0  0  0  0  0  0  0  0  0
   -2.4606   14.2195   -6.1845 H   0  0  0  0  0  0  0  0  0  0  0  0
   -0.6435   10.6063   -7.5823 H   0  0  0  0  0  0  0  0  0  0  0  0
    1.4419   14.3470   -6.0280 H   0  0  0  0  0  0  0  0  0  0  0  0
    0.1769   15.4918   -6.5897 H   0  0  0  0  0  0  0  0  0  0  0  0
    0.1266   14.8499   -4.9128 H   0  0  0  0  0  0  0  0  0  0  0  0
   -3.6551   12.0930  -10.4106 H   0  0  0  0  0  0  0  0  0  0  0  0
   -3.3293   11.7354  -12.1405 H   0  0  0  0  0  0  0  0  0  0  0  0
   -1.5662   13.3629  -12.1645 H   0  0  0  0  0  0  0  0  0  0  0  0
   -3.1063   14.9918  -12.9976 H   0  0  0  0  0  0  0  0  0  0  0  0
   -3.4165   15.5738  -11.3267 H   0  0  0  0  0  0  0  0  0  0  0  0
   -1.0709   14.6005  -10.2803 H   0  0  0  0  0  0  0  0  0  0  0  0
  1  2  2  0  0  0  0
  1  4  1  0  0  0  0
  1 12  1  0  0  0  0
  2  6  1  0  0  0  0
  3  4  2  0  0  0  0
  3  5  1  0  0  0  0
  5  6  2  0  0  0  0
  5  9  1  0  0  0  0
  6  7  1  0  0  0  0
  7  8  1  0  0  0  0
  7 10  2  3  0  0  0
  8  9  2  0  0  0  0
 10 14  1  0  0  0  0
 11 12  1  0  0  0  0
 11 26  1  0  0  0  0
 11 28  1  0  0  0  0
 12 13  2  0  0  0  0
 14 15  2  0  0  0  0
 14 19  1  0  0  0  0
 15 16  1  0  0  0  0
 16 17  1  0  0  0  0
 17 18  2  0  0  0  0
 17 20  1  0  0  0  0
 18 19  1  0  0  0  0
 20 21  2  0  0  0  0
 20 24  1  0  0  0  0
 21 22  1  0  0  0  0
 22 23  1  0  0  0  0
 22 25  1  0  0  0  0
 23 24  2  0  0  0  0
 26 27  1  0  0  0  0
 27 28  1  0  0  0  0
 27 29  1  0  0  0  0
  2 30  1  0  0  0  0
  3 31  1  0  0  0  0
  4 32  1  0  0  0  0
 10 33  1  0  0  0  0
 15 34  1  0  0  0  0
 16 35  1  0  0  0  0
 16 36  1  0  0  0  0
 18 37  1  0  0  0  0
 19 38  1  0  0  0  0
 19 39  1  0  0  0  0
 21 40  1  0  0  0  0
 24 41  1  0  0  0  0
 25 42  1  0  0  0  0
 25 43  1  0  0  0  0
 25 44  1  0  0  0  0
 26 45  1  0  0  0  0
 26 46  1  0  0  0  0
 27 47  1  0  0  0  0
 28 48  1  0  0  0  0
 28 49  1  0  0  0  0
 29 50  1  0  0  0  0
M  END
> <Name>
35

> <IC50[uM]>
0.004

$$$$
35
  -OEChem-05192314333D
 Structure written by MMmdl.
 50 54  0     0  0  0  0  0  0999 V2000
   -6.3895   12.3678  -12.0373 C   0  0  0  0  0  0  0  0  0  0  0  0
   -6.4824   11.8098  -10.7511 C   0  0  0  0  0  0  0  0  0  0  0  0
   -7.7271   10.5745  -13.0290 C   0  0  0  0  0  0  0  0  0  0  0  0
   -7.0179   11.7711  -13.1287 C   0  0  0  0  0  0  0  0  0  0  0  0
   -7.8170   10.0145  -11.7522 C   0  0  0  0  0  0  0  0  0  0  0  0
   -7.2238   10.6236  -10.6024 C   0  0  0  0  0  0  0  0  0  0  0  0
   -7.6044    9.7508   -9.5065 C   0  0  0  0  0  0  0  0  0  0  0  0
   -8.2828    8.7443   -9.9813 N   0  0  0  0  0  0  0  0  0  0  0  0
   -8.4172    8.8704  -11.2949 N   0  0  0  0  0  0  0  0  0  0  0  0
   -7.3303    9.8854   -8.0203 C   0  0  0  0  0  0  0  0  0  0  0  0
   -4.3418   13.6528  -11.7950 N   0  0  0  0  0  0  0  0  0  0  0  0
   -5.6106   13.6402  -12.2589 C   0  0  0  0  0  0  0  0  0  0  0  0
   -6.1045   14.5768  -12.8828 O   0  0  0  0  0  0  0  0  0  0  0  0
   -5.9605   10.4846   -7.7337 C   0  0  0  0  0  0  0  0  0  0  0  0
   -4.8084    9.7674   -8.0514 C   0  0  0  0  0  0  0  0  0  0  0  0
   -3.5547   10.3189   -7.8020 C   0  0  0  0  0  0  0  0  0  0  0  0
   -3.4471   11.5931   -7.2348 C   0  0  0  0  0  0  0  0  0  0  0  0
   -4.6026   12.3073   -6.9145 C   0  0  0  0  0  0  0  0  0  0  0  0
   -5.8562   11.7556   -7.1614 C   0  0  0  0  0  0  0  0  0  0  0  0
   -2.1021   12.1835   -6.9708 C   0  0  0  0  0  0  0  0  0  0  0  0
   -1.7710   13.4390   -6.4702 C   0  0  0  0  0  0  0  0  0  0  0  0
   -0.4354   13.4950   -6.4103 N   0  0  0  0  0  0  0  0  0  0  0  0
    0.1709   12.4112   -6.8070 N   0  0  0  0  0  0  0  0  0  0  0  0
   -0.8030   11.5943   -7.1763 C   0  0  0  0  0  0  0  0  0  0  0  0
    0.3771   14.6141   -5.9576 C   0  0  0  0  0  0  0  0  0  0  0  0
   -3.4422   12.5360  -11.3947 C   0  0  0  0  0  0  0  0  0  0  0  0
   -2.3230   13.6139  -11.4067 C   0  0  0  0  0  0  0  0  0  0  0  0
   -3.2958   14.6820  -11.9593 C   0  0  0  0  0  0  0  0  0  0  0  0
   -1.7380   13.9356  -10.1565 O   0  0  0  0  0  0  0  0  0  0  0  0
   -6.0005   12.2762   -9.9046 H   0  0  0  0  0  0  0  0  0  0  0  0
   -8.1812   10.1071  -13.8902 H   0  0  0  0  0  0  0  0  0  0  0  0
   -6.9530   12.2555  -14.0918 H   0  0  0  0  0  0  0  0  0  0  0  0
   -8.0288    9.5892   -7.2517 H   0  0  0  0  0  0  0  0  0  0  0  0
   -4.8882    8.7841   -8.4909 H   0  0  0  0  0  0  0  0  0  0  0  0
   -2.6627    9.7615   -8.0471 H   0  0  0  0  0  0  0  0  0  0  0  0
   -4.5560   12.5181   -5.8359 H   0  0  0  0  0  0  0  0  0  0  0  0
   -4.5564   13.2526   -7.4751 H   0  0  0  0  0  0  0  0  0  0  0  0
   -6.3821   12.4502   -7.8329 H   0  0  0  0  0  0  0  0  0  0  0  0
   -6.3800   11.7126   -6.1951 H   0  0  0  0  0  0  0  0  0  0  0  0
   -2.4606   14.2195   -6.1845 H   0  0  0  0  0  0  0  0  0  0  0  0
   -0.6435   10.6063   -7.5823 H   0  0  0  0  0  0  0  0  0  0  0  0
    1.4419   14.3470   -6.0280 H   0  0  0  0  0  0  0  0  0  0  0  0
    0.1769   15.4918   -6.5897 H   0  0  0  0  0  0  0  0  0  0  0  0
    0.1266   14.8499   -4.9128 H   0  0  0  0  0  0  0  0  0  0  0  0
   -3.6551   12.0930  -10.4106 H   0  0  0  0  0  0  0  0  0  0  0  0
   -3.3293   11.7354  -12.1405 H   0  0  0  0  0  0  0  0  0  0  0  0
   -1.5662   13.3629  -12.1645 H   0  0  0  0  0  0  0  0  0  0  0  0
   -3.1063   14.9918  -12.9976 H   0  0  0  0  0  0  0  0  0  0  0  0
   -3.4165   15.5738  -11.3267 H   0  0  0  0  0  0  0  0  0  0  0  0
   -1.0709   14.6005  -10.2803 H   0  0  0  0  0  0  0  0  0  0  0  0
  1  2  2  0  0  0  0
  1  4  1  0  0  0  0
  1 12  1  0  0  0  0
  2  6  1  0  0  0  0
  3  4  2  0  0  0  0
  3  5  1  0  0  0  0
  5  6  2  0  0  0  0
  5  9  1  0  0  0  0
  6  7  1  0  0  0  0
  7  8  1  0  0  0  0
  7 10  2  3  0  0  0
  8  9  2  0  0  0  0
 10 14  1  0  0  0  0
 11 12  1  0  0  0  0
 11 26  1  0  0  0  0
 11 28  1  0  0  0  0
 12 13  2  0  0  0  0
 14 15  2  0  0  0  0
 14 19  1  0  0  0  0
 15 16  1  0  0  0  0
 16 17  2  0  0  0  0
 17 18  1  0  0  0  0
 17 20  1  0  0  0  0
 18 19  1  0  0  0  0
 20 21  2  0  0  0  0
 20 24  1  0  0  0  0
 21 22  1  0  0  0  0
 22 23  1  0  0  0  0
 22 25  1  0  0  0  0
 23 24  2  0  0  0  0
 26 27  1  0  0  0  0
 27 28  1  0  0  0  0
 27 29  1  0  0  0  0
  2 30  1  0  0  0  0
  3 31  1  0  0  0  0
  4 32  1  0  0  0  0
 10 33  1  0  0  0  0
 15 34  1  0  0  0  0
 16 35  1  0  0  0  0
 18 36  1  0  0  0  0
 18 37  1  0  0  0  0
 19 38  1  0  0  0  0
 19 39  1  0  0  0  0
 21 40  1  0  0  0  0
 24 41  1  0  0  0  0
 25 42  1  0  0  0  0
 25 43  1  0  0  0  0
 25 44  1  0  0  0  0
 26 45  1  0  0  0  0
 26 46  1  0  0  0  0
 27 47  1  0  0  0  0
 28 48  1  0  0  0  0
 28 49  1  0  0  0  0
 29 50  1  0  0  0  0
M  END
> <Name>
35

> <IC50[uM]>
0.004

$$$$
35
  -OEChem-05192314333D
 Structure written by MMmdl.
 50 54  0     1  0  0  0  0  0999 V2000
   -6.3895   12.3678  -12.0373 C   0  0  3  0  0  0  0  0  0  0  0  0
   -6.4824   11.8098  -10.7511 C   0  0  0  0  0  0  0  0  0  0  0  0
   -7.7271   10.5745  -13.0290 C   0  0  0  0  0  0  0  0  0  0  0  0
   -7.0179   11.7711  -13.1287 C   0  0  0  0  0  0  0  0  0  0  0  0
   -7.8170   10.0145  -11.7522 C   0  0  0  0  0  0  0  0  0  0  0  0
   -7.2238   10.6236  -10.6024 C   0  0  0  0  0  0  0  0  0  0  0  0
   -7.6044    9.7508   -9.5065 C   0  0  0  0  0  0  0  0  0  0  0  0
   -8.2828    8.7443   -9.9813 N   0  0  0  0  0  0  0  0  0  0  0  0
   -8.4172    8.8704  -11.2949 N   0  0  0  0  0  0  0  0  0  0  0  0
   -7.3303    9.8854   -8.0203 C   0  0  0  0  0  0  0  0  0  0  0  0
   -4.3418   13.6528  -11.7950 N   0  0  0  0  0  0  0  0  0  0  0  0
   -5.6106   13.6402  -12.2589 C   0  0  0  0  0  0  0  0  0  0  0  0
   -6.1045   14.5768  -12.8828 O   0  0  0  0  0  0  0  0  0  0  0  0
   -5.9605   10.4846   -7.7337 C   0  0  0  0  0  0  0  0  0  0  0  0
   -4.8084    9.7674   -8.0514 C   0  0  0  0  0  0  0  0  0  0  0  0
   -3.5547   10.3189   -7.8020 C   0  0  0  0  0  0  0  0  0  0  0  0
   -3.4471   11.5931   -7.2348 C   0  0  0  0  0  0  0  0  0  0  0  0
   -4.6026   12.3073   -6.9145 C   0  0  0  0  0  0  0  0  0  0  0  0
   -5.8562   11.7556   -7.1614 C   0  0  0  0  0  0  0  0  0  0  0  0
   -2.1021   12.1835   -6.9708 C   0  0  0  0  0  0  0  0  0  0  0  0
   -1.7710   13.4390   -6.4702 C   0  0  0  0  0  0  0  0  0  0  0  0
   -0.4354   13.4950   -6.4103 N   0  0  0  0  0  0  0  0  0  0  0  0
    0.1709   12.4112   -6.8070 N   0  0  0  0  0  0  0  0  0  0  0  0
   -0.8030   11.5943   -7.1763 C   0  0  0  0  0  0  0  0  0  0  0  0
    0.3771   14.6141   -5.9576 C   0  0  0  0  0  0  0  0  0  0  0  0
   -3.4422   12.5360  -11.3947 C   0  0  0  0  0  0  0  0  0  0  0  0
   -2.3230   13.6139  -11.4067 C   0  0  0  0  0  0  0  0  0  0  0  0
   -3.2958   14.6820  -11.9593 C   0  0  0  0  0  0  0  0  0  0  0  0
   -1.7380   13.9356  -10.1565 O   0  0  0  0  0  0  0  0  0  0  0  0
   -5.4830   11.7758  -12.2318 H   0  0  0  0  0  0  0  0  0  0  0  0
   -5.4579   11.6013  -10.4092 H   0  0  0  0  0  0  0  0  0  0  0  0
   -6.9402   12.5668  -10.0974 H   0  0  0  0  0  0  0  0  0  0  0  0
   -8.1812   10.1071  -13.8902 H   0  0  0  0  0  0  0  0  0  0  0  0
   -6.9530   12.2555  -14.0918 H   0  0  0  0  0  0  0  0  0  0  0  0
   -8.0288    9.5892   -7.2517 H   0  0  0  0  0  0  0  0  0  0  0  0
   -4.8882    8.7841   -8.4909 H   0  0  0  0  0  0  0  0  0  0  0  0
   -2.6627    9.7615   -8.0471 H   0  0  0  0  0  0  0  0  0  0  0  0
   -4.5238   13.2903   -6.4741 H   0  0  0  0  0  0  0  0  0  0  0  0
   -6.7487   12.3097   -6.9107 H   0  0  0  0  0  0  0  0  0  0  0  0
   -2.4606   14.2195   -6.1845 H   0  0  0  0  0  0  0  0  0  0  0  0
   -0.6435   10.6063   -7.5823 H   0  0  0  0  0  0  0  0  0  0  0  0
    1.4419   14.3470   -6.0280 H   0  0  0  0  0  0  0  0  0  0  0  0
    0.1769   15.4918   -6.5897 H   0  0  0  0  0  0  0  0  0  0  0  0
    0.1266   14.8499   -4.9128 H   0  0  0  0  0  0  0  0  0  0  0  0
   -3.6551   12.0930  -10.4106 H   0  0  0  0  0  0  0  0  0  0  0  0
   -3.3293   11.7354  -12.1405 H   0  0  0  0  0  0  0  0  0  0  0  0
   -1.5662   13.3629  -12.1645 H   0  0  0  0  0  0  0  0  0  0  0  0
   -3.1063   14.9918  -12.9976 H   0  0  0  0  0  0  0  0  0  0  0  0
   -3.4165   15.5738  -11.3267 H   0  0  0  0  0  0  0  0  0  0  0  0
   -1.0709   14.6005  -10.2803 H   0  0  0  0  0  0  0  0  0  0  0  0
  1  2  1  0  0  0  0
  1  4  1  0  0  0  0
  1 12  1  0  0  0  0
  2  6  1  0  0  0  0
  3  4  2  0  0  0  0
  3  5  1  0  0  0  0
  5  6  2  0  0  0  0
  5  9  1  0  0  0  0
  6  7  1  0  0  0  0
  7  8  1  0  0  0  0
  7 10  2  3  0  0  0
  8  9  2  0  0  0  0
 10 14  1  0  0  0  0
 11 12  1  0  0  0  0
 11 26  1  0  0  0  0
 11 28  1  0  0  0  0
 12 13  2  0  0  0  0
 14 15  2  0  0  0  0
 14 19  1  0  0  0  0
 15 16  1  0  0  0  0
 16 17  2  0  0  0  0
 17 18  1  0  0  0  0
 17 20  1  0  0  0  0
 18 19  2  0  0  0  0
 20 21  2  0  0  0  0
 20 24  1  0  0  0  0
 21 22  1  0  0  0  0
 22 23  1  0  0  0  0
 22 25  1  0  0  0  0
 23 24  2  0  0  0  0
 26 27  1  0  0  0  0
 27 28  1  0  0  0  0
 27 29  1  0  0  0  0
  1 30  1  0  0  0  0
  2 31  1  0  0  0  0
  2 32  1  0  0  0  0
  3 33  1  0  0  0  0
  4 34  1  0  0  0  0
 10 35  1  0  0  0  0
 15 36  1  0  0  0  0
 16 37  1  0  0  0  0
 18 38  1  0  0  0  0
 19 39  1  0  0  0  0
 21 40  1  0  0  0  0
 24 41  1  0  0  0  0
 25 42  1  0  0  0  0
 25 43  1  0  0  0  0
 25 44  1  0  0  0  0
 26 45  1  0  0  0  0
 26 46  1  0  0  0  0
 27 47  1  0  0  0  0
 28 48  1  0  0  0  0
 28 49  1  0  0  0  0
 29 50  1  0  0  0  0
M  END
> <Name>
35

> <IC50[uM]>
0.004

$$$$
35
  -OEChem-05192314333D
 Structure written by MMmdl.
 50 54  0     1  0  0  0  0  0999 V2000
   -6.3895   12.3678  -12.0373 C   0  0  0  0  0  0  0  0  0  0  0  0
   -6.4824   11.8098  -10.7511 C   0  0  0  0  0  0  0  0  0  0  0  0
   -7.7271   10.5745  -13.0290 C   0  0  0  0  0  0  0  0  0  0  0  0
   -7.0179   11.7711  -13.1287 C   0  0  0  0  0  0  0  0  0  0  0  0
   -7.8170   10.0145  -11.7522 C   0  0  0  0  0  0  0  0  0  0  0  0
   -7.2238   10.6236  -10.6024 C   0  0  3  0  0  0  0  0  0  0  0  0
   -7.6044    9.7508   -9.5065 C   0  0  0  0  0  0  0  0  0  0  0  0
   -8.2828    8.7443   -9.9813 N   0  0  0  0  0  0  0  0  0  0  0  0
   -8.4172    8.8704  -11.2949 N   0  0  0  0  0  0  0  0  0  0  0  0
   -7.3303    9.8854   -8.0203 C   0  0  0  0  0  0  0  0  0  0  0  0
   -4.3418   13.6528  -11.7950 N   0  0  0  0  0  0  0  0  0  0  0  0
   -5.6106   13.6402  -12.2589 C   0  0  0  0  0  0  0  0  0  0  0  0
   -6.1045   14.5768  -12.8828 O   0  0  0  0  0  0  0  0  0  0  0  0
   -5.9605   10.4846   -7.7337 C   0  0  0  0  0  0  0  0  0  0  0  0
   -4.8084    9.7674   -8.0514 C   0  0  0  0  0  0  0  0  0  0  0  0
   -3.5547   10.3189   -7.8020 C   0  0  0  0  0  0  0  0  0  0  0  0
   -3.4471   11.5931   -7.2348 C   0  0  0  0  0  0  0  0  0  0  0  0
   -4.6026   12.3073   -6.9145 C   0  0  0  0  0  0  0  0  0  0  0  0
   -5.8562   11.7556   -7.1614 C   0  0  0  0  0  0  0  0  0  0  0  0
   -2.1021   12.1835   -6.9708 C   0  0  0  0  0  0  0  0  0  0  0  0
   -1.7710   13.4390   -6.4702 C   0  0  0  0  0  0  0  0  0  0  0  0
   -0.4354   13.4950   -6.4103 N   0  0  0  0  0  0  0  0  0  0  0  0
    0.1709   12.4112   -6.8070 N   0  0  0  0  0  0  0  0  0  0  0  0
   -0.8030   11.5943   -7.1763 C   0  0  0  0  0  0  0  0  0  0  0  0
    0.3771   14.6141   -5.9576 C   0  0  0  0  0  0  0  0  0  0  0  0
   -3.4422   12.5360  -11.3947 C   0  0  0  0  0  0  0  0  0  0  0  0
   -2.3230   13.6139  -11.4067 C   0  0  0  0  0  0  0  0  0  0  0  0
   -3.2958   14.6820  -11.9593 C   0  0  0  0  0  0  0  0  0  0  0  0
   -1.7380   13.9356  -10.1565 O   0  0  0  0  0  0  0  0  0  0  0  0
   -5.4579   11.6013  -10.4092 H   0  0  0  0  0  0  0  0  0  0  0  0
   -6.9402   12.5668  -10.0974 H   0  0  0  0  0  0  0  0  0  0  0  0
   -8.1812   10.1071  -13.8902 H   0  0  0  0  0  0  0  0  0  0  0  0
   -6.9530   12.2555  -14.0918 H   0  0  0  0  0  0  0  0  0  0  0  0
   -6.3101   10.0314  -10.7584 H   0  0  0  0  0  0  0  0  0  0  0  0
   -8.0288    9.5892   -7.2517 H   0  0  0  0  0  0  0  0  0  0  0  0
   -4.8882    8.7841   -8.4909 H   0  0  0  0  0  0  0  0  0  0  0  0
   -2.6627    9.7615   -8.0471 H   0  0  0  0  0  0  0  0  0  0  0  0
   -4.5238   13.2903   -6.4741 H   0  0  0  0  0  0  0  0  0  0  0  0
   -6.7487   12.3097   -6.9107 H   0  0  0  0  0  0  0  0  0  0  0  0
   -2.4606   14.2195   -6.1845 H   0  0  0  0  0  0  0  0  0  0  0  0
   -0.6435   10.6063   -7.5823 H   0  0  0  0  0  0  0  0  0  0  0  0
    1.4419   14.3470   -6.0280 H   0  0  0  0  0  0  0  0  0  0  0  0
    0.1769   15.4918   -6.5897 H   0  0  0  0  0  0  0  0  0  0  0  0
    0.1266   14.8499   -4.9128 H   0  0  0  0  0  0  0  0  0  0  0  0
   -3.6551   12.0930  -10.4106 H   0  0  0  0  0  0  0  0  0  0  0  0
   -3.3293   11.7354  -12.1405 H   0  0  0  0  0  0  0  0  0  0  0  0
   -1.5662   13.3629  -12.1645 H   0  0  0  0  0  0  0  0  0  0  0  0
   -3.1063   14.9918  -12.9976 H   0  0  0  0  0  0  0  0  0  0  0  0
   -3.4165   15.5738  -11.3267 H   0  0  0  0  0  0  0  0  0  0  0  0
   -1.0709   14.6005  -10.2803 H   0  0  0  0  0  0  0  0  0  0  0  0
  1  2  1  0  0  0  0
  1  4  2  0  0  0  0
  1 12  1  0  0  0  0
  2  6  1  0  0  0  0
  3  4  1  0  0  0  0
  3  5  2  0  0  0  0
  5  6  1  0  0  0  0
  5  9  1  0  0  0  0
  6  7  1  0  0  0  0
  7  8  1  0  0  0  0
  7 10  2  3  0  0  0
  8  9  2  0  0  0  0
 10 14  1  0  0  0  0
 11 12  1  0  0  0  0
 11 26  1  0  0  0  0
 11 28  1  0  0  0  0
 12 13  2  0  0  0  0
 14 15  2  0  0  0  0
 14 19  1  0  0  0  0
 15 16  1  0  0  0  0
 16 17  2  0  0  0  0
 17 18  1  0  0  0  0
 17 20  1  0  0  0  0
 18 19  2  0  0  0  0
 20 21  2  0  0  0  0
 20 24  1  0  0  0  0
 21 22  1  0  0  0  0
 22 23  1  0  0  0  0
 22 25  1  0  0  0  0
 23 24  2  0  0  0  0
 26 27  1  0  0  0  0
 27 28  1  0  0  0  0
 27 29  1  0  0  0  0
  2 30  1  0  0  0  0
  2 31  1  0  0  0  0
  3 32  1  0  0  0  0
  4 33  1  0  0  0  0
  6 34  1  0  0  0  0
 10 35  1  0  0  0  0
 15 36  1  0  0  0  0
 16 37  1  0  0  0  0
 18 38  1  0  0  0  0
 19 39  1  0  0  0  0
 21 40  1  0  0  0  0
 24 41  1  0  0  0  0
 25 42  1  0  0  0  0
 25 43  1  0  0  0  0
 25 44  1  0  0  0  0
 26 45  1  0  0  0  0
 26 46  1  0  0  0  0
 27 47  1  0  0  0  0
 28 48  1  0  0  0  0
 28 49  1  0  0  0  0
 29 50  1  0  0  0  0
M  END
> <Name>
35

> <IC50[uM]>
0.004

$$$$
35
  -OEChem-05192314333D
 Structure written by MMmdl.
 50 54  0     0  0  0  0  0  0999 V2000
   -6.3895   12.3678  -12.0373 C   0  0  0  0  0  0  0  0  0  0  0  0
   -6.4824   11.8098  -10.7511 C   0  0  0  0  0  0  0  0  0  0  0  0
   -7.7271   10.5745  -13.0290 C   0  0  0  0  0  0  0  0  0  0  0  0
   -7.0179   11.7711  -13.1287 C   0  0  0  0  0  0  0  0  0  0  0  0
   -7.8170   10.0145  -11.7522 C   0  0  0  0  0  0  0  0  0  0  0  0
   -7.2238   10.6236  -10.6024 C   0  0  0  0  0  0  0  0  0  0  0  0
   -7.6044    9.7508   -9.5065 C   0  0  0  0  0  0  0  0  0  0  0  0
   -8.2828    8.7443   -9.9813 N   0  0  0  0  0  0  0  0  0  0  0  0
   -8.4172    8.8704  -11.2949 N   0  0  0  0  0  0  0  0  0  0  0  0
   -7.3303    9.8854   -8.0203 C   0  0  0  0  0  0  0  0  0  0  0  0
   -4.3418   13.6528  -11.7950 N   0  0  0  0  0  0  0  0  0  0  0  0
   -5.6106   13.6402  -12.2589 C   0  0  0  0  0  0  0  0  0  0  0  0
   -6.1045   14.5768  -12.8828 O   0  0  0  0  0  0  0  0  0  0  0  0
   -5.9605   10.4846   -7.7337 C   0  0  0  0  0  0  0  0  0  0  0  0
   -4.8084    9.7674   -8.0514 C   0  0  0  0  0  0  0  0  0  0  0  0
   -3.5547   10.3189   -7.8020 C   0  0  0  0  0  0  0  0  0  0  0  0
   -3.4471   11.5931   -7.2348 C   0  0  0  0  0  0  0  0  0  0  0  0
   -4.6026   12.3073   -6.9145 C   0  0  0  0  0  0  0  0  0  0  0  0
   -5.8562   11.7556   -7.1614 C   0  0  0  0  0  0  0  0  0  0  0  0
   -2.1021   12.1835   -6.9708 C   0  0  0  0  0  0  0  0  0  0  0  0
   -1.7710   13.4390   -6.4702 C   0  0  0  0  0  0  0  0  0  0  0  0
   -0.4354   13.4950   -6.4103 N   0  0  0  0  0  0  0  0  0  0  0  0
    0.1709   12.4112   -6.8070 N   0  0  0  0  0  0  0  0  0  0  0  0
   -0.8030   11.5943   -7.1763 C   0  0  0  0  0  0  0  0  0  0  0  0
    0.3771   14.6141   -5.9576 C   0  0  0  0  0  0  0  0  0  0  0  0
   -3.4422   12.5360  -11.3947 C   0  0  0  0  0  0  0  0  0  0  0  0
   -2.3230   13.6139  -11.4067 C   0  0  0  0  0  0  0  0  0  0  0  0
   -3.2958   14.6820  -11.9593 C   0  0  0  0  0  0  0  0  0  0  0  0
   -1.7380   13.9356  -10.1565 O   0  0  0  0  0  0  0  0  0  0  0  0
   -5.4579   11.6013  -10.4092 H   0  0  0  0  0  0  0  0  0  0  0  0
   -6.9402   12.5668  -10.0974 H   0  0  0  0  0  0  0  0  0  0  0  0
   -8.7506   10.7604  -13.3866 H   0  0  0  0  0  0  0  0  0  0  0  0
   -7.2377    9.8389  -13.6842 H   0  0  0  0  0  0  0  0  0  0  0  0
   -6.9530   12.2555  -14.0918 H   0  0  0  0  0  0  0  0  0  0  0  0
   -8.0288    9.5892   -7.2517 H   0  0  0  0  0  0  0  0  0  0  0  0
   -4.8882    8.7841   -8.4909 H   0  0  0  0  0  0  0  0  0  0  0  0
   -2.6627    9.7615   -8.0471 H   0  0  0  0  0  0  0  0  0  0  0  0
   -4.5238   13.2903   -6.4741 H   0  0  0  0  0  0  0  0  0  0  0  0
   -6.7487   12.3097   -6.9107 H   0  0  0  0  0  0  0  0  0  0  0  0
   -2.4606   14.2195   -6.1845 H   0  0  0  0  0  0  0  0  0  0  0  0
   -0.6435   10.6063   -7.5823 H   0  0  0  0  0  0  0  0  0  0  0  0
    1.4419   14.3470   -6.0280 H   0  0  0  0  0  0  0  0  0  0  0  0
    0.1769   15.4918   -6.5897 H   0  0  0  0  0  0  0  0  0  0  0  0
    0.1266   14.8499   -4.9128 H   0  0  0  0  0  0  0  0  0  0  0  0
   -3.6551   12.0930  -10.4106 H   0  0  0  0  0  0  0  0  0  0  0  0
   -3.3293   11.7354  -12.1405 H   0  0  0  0  0  0  0  0  0  0  0  0
   -1.5662   13.3629  -12.1645 H   0  0  0  0  0  0  0  0  0  0  0  0
   -3.1063   14.9918  -12.9976 H   0  0  0  0  0  0  0  0  0  0  0  0
   -3.4165   15.5738  -11.3267 H   0  0  0  0  0  0  0  0  0  0  0  0
   -1.0709   14.6005  -10.2803 H   0  0  0  0  0  0  0  0  0  0  0  0
  1  2  1  0  0  0  0
  1  4  2  0  0  0  0
  1 12  1  0  0  0  0
  2  6  1  0  0  0  0
  3  4  1  0  0  0  0
  3  5  1  0  0  0  0
  5  6  2  0  0  0  0
  5  9  1  0  0  0  0
  6  7  1  0  0  0  0
  7  8  1  0  0  0  0
  7 10  2  3  0  0  0
  8  9  2  0  0  0  0
 10 14  1  0  0  0  0
 11 12  1  0  0  0  0
 11 26  1  0  0  0  0
 11 28  1  0  0  0  0
 12 13  2  0  0  0  0
 14 15  2  0  0  0  0
 14 19  1  0  0  0  0
 15 16  1  0  0  0  0
 16 17  2  0  0  0  0
 17 18  1  0  0  0  0
 17 20  1  0  0  0  0
 18 19  2  0  0  0  0
 20 21  2  0  0  0  0
 20 24  1  0  0  0  0
 21 22  1  0  0  0  0
 22 23  1  0  0  0  0
 22 25  1  0  0  0  0
 23 24  2  0  0  0  0
 26 27  1  0  0  0  0
 27 28  1  0  0  0  0
 27 29  1  0  0  0  0
  2 30  1  0  0  0  0
  2 31  1  0  0  0  0
  3 32  1  0  0  0  0
  3 33  1  0  0  0  0
  4 34  1  0  0  0  0
 10 35  1  0  0  0  0
 15 36  1  0  0  0  0
 16 37  1  0  0  0  0
 18 38  1  0  0  0  0
 19 39  1  0  0  0  0
 21 40  1  0  0  0  0
 24 41  1  0  0  0  0
 25 42  1  0  0  0  0
 25 43  1  0  0  0  0
 25 44  1  0  0  0  0
 26 45  1  0  0  0  0
 26 46  1  0  0  0  0
 27 47  1  0  0  0  0
 28 48  1  0  0  0  0
 28 49  1  0  0  0  0
 29 50  1  0  0  0  0
M  END
> <Name>
35

> <IC50[uM]>
0.004

$$$$
35
  -OEChem-05192314333D
 Structure written by MMmdl.
 50 54  0     1  0  0  0  0  0999 V2000
   -6.3895   12.3678  -12.0373 C   0  0  0  0  0  0  0  0  0  0  0  0
   -6.4824   11.8098  -10.7511 C   0  0  0  0  0  0  0  0  0  0  0  0
   -7.7271   10.5745  -13.0290 C   0  0  0  0  0  0  0  0  0  0  0  0
   -7.0179   11.7711  -13.1287 C   0  0  0  0  0  0  0  0  0  0  0  0
   -7.8170   10.0145  -11.7522 C   0  0  3  0  0  0  0  0  0  0  0  0
   -7.2238   10.6236  -10.6024 C   0  0  0  0  0  0  0  0  0  0  0  0
   -7.6044    9.7508   -9.5065 C   0  0  0  0  0  0  0  0  0  0  0  0
   -8.2828    8.7443   -9.9813 N   0  0  0  0  0  0  0  0  0  0  0  0
   -8.4172    8.8704  -11.2949 N   0  0  0  0  0  0  0  0  0  0  0  0
   -7.3303    9.8854   -8.0203 C   0  0  0  0  0  0  0  0  0  0  0  0
   -4.3418   13.6528  -11.7950 N   0  0  0  0  0  0  0  0  0  0  0  0
   -5.6106   13.6402  -12.2589 C   0  0  0  0  0  0  0  0  0  0  0  0
   -6.1045   14.5768  -12.8828 O   0  0  0  0  0  0  0  0  0  0  0  0
   -5.9605   10.4846   -7.7337 C   0  0  0  0  0  0  0  0  0  0  0  0
   -4.8084    9.7674   -8.0514 C   0  0  0  0  0  0  0  0  0  0  0  0
   -3.5547   10.3189   -7.8020 C   0  0  0  0  0  0  0  0  0  0  0  0
   -3.4471   11.5931   -7.2348 C   0  0  0  0  0  0  0  0  0  0  0  0
   -4.6026   12.3073   -6.9145 C   0  0  0  0  0  0  0  0  0  0  0  0
   -5.8562   11.7556   -7.1614 C   0  0  0  0  0  0  0  0  0  0  0  0
   -2.1021   12.1835   -6.9708 C   0  0  0  0  0  0  0  0  0  0  0  0
   -1.7710   13.4390   -6.4702 C   0  0  0  0  0  0  0  0  0  0  0  0
   -0.4354   13.4950   -6.4103 N   0  0  0  0  0  0  0  0  0  0  0  0
    0.1709   12.4112   -6.8070 N   0  0  0  0  0  0  0  0  0  0  0  0
   -0.8030   11.5943   -7.1763 C   0  0  0  0  0  0  0  0  0  0  0  0
    0.3771   14.6141   -5.9576 C   0  0  0  0  0  0  0  0  0  0  0  0
   -3.4422   12.5360  -11.3947 C   0  0  0  0  0  0  0  0  0  0  0  0
   -2.3230   13.6139  -11.4067 C   0  0  0  0  0  0  0  0  0  0  0  0
   -3.2958   14.6820  -11.9593 C   0  0  0  0  0  0  0  0  0  0  0  0
   -1.7380   13.9356  -10.1565 O   0  0  0  0  0  0  0  0  0  0  0  0
   -6.0005   12.2762   -9.9046 H   0  0  0  0  0  0  0  0  0  0  0  0
   -8.1812   10.1071  -13.8902 H   0  0  0  0  0  0  0  0  0  0  0  0
   -6.9530   12.2555  -14.0918 H   0  0  0  0  0  0  0  0  0  0  0  0
   -8.7459   10.5752  -11.5709 H   0  0  0  0  0  0  0  0  0  0  0  0
   -8.0995   10.5347   -7.5768 H   0  0  0  0  0  0  0  0  0  0  0  0
   -7.3826    8.8878   -7.5599 H   0  0  0  0  0  0  0  0  0  0  0  0
   -4.8882    8.7841   -8.4909 H   0  0  0  0  0  0  0  0  0  0  0  0
   -2.6627    9.7615   -8.0471 H   0  0  0  0  0  0  0  0  0  0  0  0
   -4.5238   13.2903   -6.4741 H   0  0  0  0  0  0  0  0  0  0  0  0
   -6.7487   12.3097   -6.9107 H   0  0  0  0  0  0  0  0  0  0  0  0
   -2.4606   14.2195   -6.1845 H   0  0  0  0  0  0  0  0  0  0  0  0
   -0.6435   10.6063   -7.5823 H   0  0  0  0  0  0  0  0  0  0  0  0
    1.4419   14.3470   -6.0280 H   0  0  0  0  0  0  0  0  0  0  0  0
    0.1769   15.4918   -6.5897 H   0  0  0  0  0  0  0  0  0  0  0  0
    0.1266   14.8499   -4.9128 H   0  0  0  0  0  0  0  0  0  0  0  0
   -3.6551   12.0930  -10.4106 H   0  0  0  0  0  0  0  0  0  0  0  0
   -3.3293   11.7354  -12.1405 H   0  0  0  0  0  0  0  0  0  0  0  0
   -1.5662   13.3629  -12.1645 H   0  0  0  0  0  0  0  0  0  0  0  0
   -3.1063   14.9918  -12.9976 H   0  0  0  0  0  0  0  0  0  0  0  0
   -3.4165   15.5738  -11.3267 H   0  0  0  0  0  0  0  0  0  0  0  0
   -1.0709   14.6005  -10.2803 H   0  0  0  0  0  0  0  0  0  0  0  0
  1  2  2  0  0  0  0
  1  4  1  0  0  0  0
  1 12  1  0  0  0  0
  2  6  1  0  0  0  0
  3  4  2  0  0  0  0
  3  5  1  0  0  0  0
  5  6  1  0  0  0  0
  5  9  1  0  0  0  0
  6  7  2  0  0  0  0
  7  8  1  0  0  0  0
  7 10  1  0  0  0  0
  8  9  2  0  0  0  0
 10 14  1  0  0  0  0
 11 12  1  0  0  0  0
 11 26  1  0  0  0  0
 11 28  1  0  0  0  0
 12 13  2  0  0  0  0
 14 15  2  0  0  0  0
 14 19  1  0  0  0  0
 15 16  1  0  0  0  0
 16 17  2  0  0  0  0
 17 18  1  0  0  0  0
 17 20  1  0  0  0  0
 18 19  2  0  0  0  0
 20 21  2  0  0  0  0
 20 24  1  0  0  0  0
 21 22  1  0  0  0  0
 22 23  1  0  0  0  0
 22 25  1  0  0  0  0
 23 24  2  0  0  0  0
 26 27  1  0  0  0  0
 27 28  1  0  0  0  0
 27 29  1  0  0  0  0
  2 30  1  0  0  0  0
  3 31  1  0  0  0  0
  4 32  1  0  0  0  0
  5 33  1  0  0  0  0
 10 34  1  0  0  0  0
 10 35  1  0  0  0  0
 15 36  1  0  0  0  0
 16 37  1  0  0  0  0
 18 38  1  0  0  0  0
 19 39  1  0  0  0  0
 21 40  1  0  0  0  0
 24 41  1  0  0  0  0
 25 42  1  0  0  0  0
 25 43  1  0  0  0  0
 25 44  1  0  0  0  0
 26 45  1  0  0  0  0
 26 46  1  0  0  0  0
 27 47  1  0  0  0  0
 28 48  1  0  0  0  0
 28 49  1  0  0  0  0
 29 50  1  0  0  0  0
M  END
> <Name>
35

> <IC50[uM]>
0.004

$$$$
35
  -OEChem-05192314333D
 Structure written by MMmdl.
 50 54  0     0  0  0  0  0  0999 V2000
   -6.3895   12.3678  -12.0373 C   0  0  0  0  0  0  0  0  0  0  0  0
   -6.4824   11.8098  -10.7511 C   0  0  0  0  0  0  0  0  0  0  0  0
   -7.7271   10.5745  -13.0290 C   0  0  0  0  0  0  0  0  0  0  0  0
   -7.0179   11.7711  -13.1287 C   0  0  0  0  0  0  0  0  0  0  0  0
   -7.8170   10.0145  -11.7522 C   0  0  0  0  0  0  0  0  0  0  0  0
   -7.2238   10.6236  -10.6024 C   0  0  0  0  0  0  0  0  0  0  0  0
   -7.6044    9.7508   -9.5065 C   0  0  0  0  0  0  0  0  0  0  0  0
   -8.2828    8.7443   -9.9813 N   0  0  0  0  0  0  0  0  0  0  0  0
   -8.4172    8.8704  -11.2949 N   0  0  0  0  0  0  0  0  0  0  0  0
   -7.3303    9.8854   -8.0203 C   0  0  0  0  0  0  0  0  0  0  0  0
   -4.3418   13.6528  -11.7950 N   0  0  0  0  0  0  0  0  0  0  0  0
   -5.6106   13.6402  -12.2589 C   0  0  0  0  0  0  0  0  0  0  0  0
   -6.1045   14.5768  -12.8828 O   0  0  0  0  0  0  0  0  0  0  0  0
   -5.9605   10.4846   -7.7337 C   0  0  0  0  0  0  0  0  0  0  0  0
   -4.8084    9.7674   -8.0514 C   0  0  0  0  0  0  0  0  0  0  0  0
   -3.5547   10.3189   -7.8020 C   0  0  0  0  0  0  0  0  0  0  0  0
   -3.4471   11.5931   -7.2348 C   0  0  0  0  0  0  0  0  0  0  0  0
   -4.6026   12.3073   -6.9145 C   0  0  0  0  0  0  0  0  0  0  0  0
   -5.8562   11.7556   -7.1614 C   0  0  0  0  0  0  0  0  0  0  0  0
   -2.1021   12.1835   -6.9708 C   0  0  0  0  0  0  0  0  0  0  0  0
   -1.7710   13.4390   -6.4702 C   0  0  0  0  0  0  0  0  0  0  0  0
   -0.4354   13.4950   -6.4103 N   0  0  0  0  0  0  0  0  0  0  0  0
    0.1709   12.4112   -6.8070 N   0  0  0  0  0  0  0  0  0  0  0  0
   -0.8030   11.5943   -7.1763 C   0  0  0  0  0  0  0  0  0  0  0  0
    0.3771   14.6141   -5.9576 C   0  0  0  0  0  0  0  0  0  0  0  0
   -3.4422   12.5360  -11.3947 C   0  0  0  0  0  0  0  0  0  0  0  0
   -2.3230   13.6139  -11.4067 C   0  0  0  0  0  0  0  0  0  0  0  0
   -3.2958   14.6820  -11.9593 C   0  0  0  0  0  0  0  0  0  0  0  0
   -1.7380   13.9356  -10.1565 O   0  0  0  0  0  0  0  0  0  0  0  0
   -6.0005   12.2762   -9.9046 H   0  0  0  0  0  0  0  0  0  0  0  0
   -8.1812   10.1071  -13.8902 H   0  0  0  0  0  0  0  0  0  0  0  0
   -7.7299   12.5156  -13.5144 H   0  0  0  0  0  0  0  0  0  0  0  0
   -6.2295   11.5963  -13.8757 H   0  0  0  0  0  0  0  0  0  0  0  0
   -8.0995   10.5347   -7.5768 H   0  0  0  0  0  0  0  0  0  0  0  0
   -7.3826    8.8878   -7.5599 H   0  0  0  0  0  0  0  0  0  0  0  0
   -4.8882    8.7841   -8.4909 H   0  0  0  0  0  0  0  0  0  0  0  0
   -2.6627    9.7615   -8.0471 H   0  0  0  0  0  0  0  0  0  0  0  0
   -4.5238   13.2903   -6.4741 H   0  0  0  0  0  0  0  0  0  0  0  0
   -6.7487   12.3097   -6.9107 H   0  0  0  0  0  0  0  0  0  0  0  0
   -2.4606   14.2195   -6.1845 H   0  0  0  0  0  0  0  0  0  0  0  0
   -0.6435   10.6063   -7.5823 H   0  0  0  0  0  0  0  0  0  0  0  0
    1.4419   14.3470   -6.0280 H   0  0  0  0  0  0  0  0  0  0  0  0
    0.1769   15.4918   -6.5897 H   0  0  0  0  0  0  0  0  0  0  0  0
    0.1266   14.8499   -4.9128 H   0  0  0  0  0  0  0  0  0  0  0  0
   -3.6551   12.0930  -10.4106 H   0  0  0  0  0  0  0  0  0  0  0  0
   -3.3293   11.7354  -12.1405 H   0  0  0  0  0  0  0  0  0  0  0  0
   -1.5662   13.3629  -12.1645 H   0  0  0  0  0  0  0  0  0  0  0  0
   -3.1063   14.9918  -12.9976 H   0  0  0  0  0  0  0  0  0  0  0  0
   -3.4165   15.5738  -11.3267 H   0  0  0  0  0  0  0  0  0  0  0  0
   -1.0709   14.6005  -10.2803 H   0  0  0  0  0  0  0  0  0  0  0  0
  1  2  2  0  0  0  0
  1  4  1  0  0  0  0
  1 12  1  0  0  0  0
  2  6  1  0  0  0  0
  3  4  1  0  0  0  0
  3  5  2  0  0  0  0
  5  6  1  0  0  0  0
  5  9  1  0  0  0  0
  6  7  2  0  0  0  0
  7  8  1  0  0  0  0
  7 10  1  0  0  0  0
  8  9  2  0  0  0  0
 10 14  1  0  0  0  0
 11 12  1  0  0  0  0
 11 26  1  0  0  0  0
 11 28  1  0  0  0  0
 12 13  2  0  0  0  0
 14 15  2  0  0  0  0
 14 19  1  0  0  0  0
 15 16  1  0  0  0  0
 16 17  2  0  0  0  0
 17 18  1  0  0  0  0
 17 20  1  0  0  0  0
 18 19  2  0  0  0  0
 20 21  2  0  0  0  0
 20 24  1  0  0  0  0
 21 22  1  0  0  0  0
 22 23  1  0  0  0  0
 22 25  1  0  0  0  0
 23 24  2  0  0  0  0
 26 27  1  0  0  0  0
 27 28  1  0  0  0  0
 27 29  1  0  0  0  0
  2 30  1  0  0  0  0
  3 31  1  0  0  0  0
  4 32  1  0  0  0  0
  4 33  1  0  0  0  0
 10 34  1  0  0  0  0
 10 35  1  0  0  0  0
 15 36  1  0  0  0  0
 16 37  1  0  0  0  0
 18 38  1  0  0  0  0
 19 39  1  0  0  0  0
 21 40  1  0  0  0  0
 24 41  1  0  0  0  0
 25 42  1  0  0  0  0
 25 43  1  0  0  0  0
 25 44  1  0  0  0  0
 26 45  1  0  0  0  0
 26 46  1  0  0  0  0
 27 47  1  0  0  0  0
 28 48  1  0  0  0  0
 28 49  1  0  0  0  0
 29 50  1  0  0  0  0
M  END
> <Name>
35

> <IC50[uM]>
0.004

$$$$
35
  -OEChem-05192314333D
 Structure written by MMmdl.
 50 54  0     0  0  0  0  0  0999 V2000
   -6.3895   12.3678  -12.0373 C   0  0  0  0  0  0  0  0  0  0  0  0
   -6.4824   11.8098  -10.7511 C   0  0  0  0  0  0  0  0  0  0  0  0
   -7.7271   10.5745  -13.0290 C   0  0  0  0  0  0  0  0  0  0  0  0
   -7.0179   11.7711  -13.1287 C   0  0  0  0  0  0  0  0  0  0  0  0
   -7.8170   10.0145  -11.7522 C   0  0  0  0  0  0  0  0  0  0  0  0
   -7.2238   10.6236  -10.6024 C   0  0  0  0  0  0  0  0  0  0  0  0
   -7.6044    9.7508   -9.5065 C   0  0  0  0  0  0  0  0  0  0  0  0
   -8.2828    8.7443   -9.9813 N   0  0  0  0  0  0  0  0  0  0  0  0
   -8.4172    8.8704  -11.2949 N   0  0  0  0  0  0  0  0  0  0  0  0
   -7.3303    9.8854   -8.0203 C   0  0  0  0  0  0  0  0  0  0  0  0
   -4.3418   13.6528  -11.7950 N   0  0  0  0  0  0  0  0  0  0  0  0
   -5.6106   13.6402  -12.2589 C   0  0  0  0  0  0  0  0  0  0  0  0
   -6.1045   14.5768  -12.8828 O   0  0  0  0  0  0  0  0  0  0  0  0
   -5.9605   10.4846   -7.7337 C   0  0  0  0  0  0  0  0  0  0  0  0
   -4.8084    9.7674   -8.0514 C   0  0  0  0  0  0  0  0  0  0  0  0
   -3.5547   10.3189   -7.8020 C   0  0  0  0  0  0  0  0  0  0  0  0
   -3.4471   11.5931   -7.2348 C   0  0  0  0  0  0  0  0  0  0  0  0
   -4.6026   12.3073   -6.9145 C   0  0  0  0  0  0  0  0  0  0  0  0
   -5.8562   11.7556   -7.1614 C   0  0  0  0  0  0  0  0  0  0  0  0
   -2.1021   12.1835   -6.9708 C   0  0  0  0  0  0  0  0  0  0  0  0
   -1.7710   13.4390   -6.4702 C   0  0  0  0  0  0  0  0  0  0  0  0
   -0.4354   13.4950   -6.4103 N   0  0  0  0  0  0  0  0  0  0  0  0
    0.1709   12.4112   -6.8070 N   0  0  0  0  0  0  0  0  0  0  0  0
   -0.8030   11.5943   -7.1763 C   0  0  0  0  0  0  0  0  0  0  0  0
    0.3771   14.6141   -5.9576 C   0  0  0  0  0  0  0  0  0  0  0  0
   -3.4422   12.5360  -11.3947 C   0  0  0  0  0  0  0  0  0  0  0  0
   -2.3230   13.6139  -11.4067 C   0  0  0  0  0  0  0  0  0  0  0  0
   -3.2958   14.6820  -11.9593 C   0  0  0  0  0  0  0  0  0  0  0  0
   -1.7380   13.9356  -10.1565 O   0  0  0  0  0  0  0  0  0  0  0  0
   -5.4579   11.6013  -10.4092 H   0  0  0  0  0  0  0  0  0  0  0  0
   -6.9402   12.5668  -10.0974 H   0  0  0  0  0  0  0  0  0  0  0  0
   -8.1812   10.1071  -13.8902 H   0  0  0  0  0  0  0  0  0  0  0  0
   -6.9530   12.2555  -14.0918 H   0  0  0  0  0  0  0  0  0  0  0  0
   -8.0995   10.5347   -7.5768 H   0  0  0  0  0  0  0  0  0  0  0  0
   -7.3826    8.8878   -7.5599 H   0  0  0  0  0  0  0  0  0  0  0  0
   -4.8882    8.7841   -8.4909 H   0  0  0  0  0  0  0  0  0  0  0  0
   -2.6627    9.7615   -8.0471 H   0  0  0  0  0  0  0  0  0  0  0  0
   -4.5238   13.2903   -6.4741 H   0  0  0  0  0  0  0  0  0  0  0  0
   -6.7487   12.3097   -6.9107 H   0  0  0  0  0  0  0  0  0  0  0  0
   -2.4606   14.2195   -6.1845 H   0  0  0  0  0  0  0  0  0  0  0  0
   -0.6435   10.6063   -7.5823 H   0  0  0  0  0  0  0  0  0  0  0  0
    1.4419   14.3470   -6.0280 H   0  0  0  0  0  0  0  0  0  0  0  0
    0.1769   15.4918   -6.5897 H   0  0  0  0  0  0  0  0  0  0  0  0
    0.1266   14.8499   -4.9128 H   0  0  0  0  0  0  0  0  0  0  0  0
   -3.6551   12.0930  -10.4106 H   0  0  0  0  0  0  0  0  0  0  0  0
   -3.3293   11.7354  -12.1405 H   0  0  0  0  0  0  0  0  0  0  0  0
   -1.5662   13.3629  -12.1645 H   0  0  0  0  0  0  0  0  0  0  0  0
   -3.1063   14.9918  -12.9976 H   0  0  0  0  0  0  0  0  0  0  0  0
   -3.4165   15.5738  -11.3267 H   0  0  0  0  0  0  0  0  0  0  0  0
   -1.0709   14.6005  -10.2803 H   0  0  0  0  0  0  0  0  0  0  0  0
  1  2  1  0  0  0  0
  1  4  2  0  0  0  0
  1 12  1  0  0  0  0
  2  6  1  0  0  0  0
  3  4  1  0  0  0  0
  3  5  2  0  0  0  0
  5  6  1  0  0  0  0
  5  9  1  0  0  0  0
  6  7  2  0  0  0  0
  7  8  1  0  0  0  0
  7 10  1  0  0  0  0
  8  9  2  0  0  0  0
 10 14  1  0  0  0  0
 11 12  1  0  0  0  0
 11 26  1  0  0  0  0
 11 28  1  0  0  0  0
 12 13  2  0  0  0  0
 14 15  2  0  0  0  0
 14 19  1  0  0  0  0
 15 16  1  0  0  0  0
 16 17  2  0  0  0  0
 17 18  1  0  0  0  0
 17 20  1  0  0  0  0
 18 19  2  0  0  0  0
 20 21  2  0  0  0  0
 20 24  1  0  0  0  0
 21 22  1  0  0  0  0
 22 23  1  0  0  0  0
 22 25  1  0  0  0  0
 23 24  2  0  0  0  0
 26 27  1  0  0  0  0
 27 28  1  0  0  0  0
 27 29  1  0  0  0  0
  2 30  1  0  0  0  0
  2 31  1  0  0  0  0
  3 32  1  0  0  0  0
  4 33  1  0  0  0  0
 10 34  1  0  0  0  0
 10 35  1  0  0  0  0
 15 36  1  0  0  0  0
 16 37  1  0  0  0  0
 18 38  1  0  0  0  0
 19 39  1  0  0  0  0
 21 40  1  0  0  0  0
 24 41  1  0  0  0  0
 25 42  1  0  0  0  0
 25 43  1  0  0  0  0
 25 44  1  0  0  0  0
 26 45  1  0  0  0  0
 26 46  1  0  0  0  0
 27 47  1  0  0  0  0
 28 48  1  0  0  0  0
 28 49  1  0  0  0  0
 29 50  1  0  0  0  0
M  END
> <Name>
35

> <IC50[uM]>
0.004

$$$$
35
  -OEChem-05192314333D
 Structure written by MMmdl.
 50 54  0     1  0  0  0  0  0999 V2000
   -6.3895   12.3678  -12.0373 C   0  0  0  0  0  0  0  0  0  0  0  0
   -6.4824   11.8098  -10.7511 C   0  0  0  0  0  0  0  0  0  0  0  0
   -7.7271   10.5745  -13.0290 C   0  0  0  0  0  0  0  0  0  0  0  0
   -7.0179   11.7711  -13.1287 C   0  0  0  0  0  0  0  0  0  0  0  0
   -7.8170   10.0145  -11.7522 C   0  0  0  0  0  0  0  0  0  0  0  0
   -7.2238   10.6236  -10.6024 C   0  0  3  0  0  0  0  0  0  0  0  0
   -7.6044    9.7508   -9.5065 C   0  0  0  0  0  0  0  0  0  0  0  0
   -8.2828    8.7443   -9.9813 N   0  0  0  0  0  0  0  0  0  0  0  0
   -8.4172    8.8704  -11.2949 N   0  0  0  0  0  0  0  0  0  0  0  0
   -7.3303    9.8854   -8.0203 C   0  0  0  0  0  0  0  0  0  0  0  0
   -4.3418   13.6528  -11.7950 N   0  0  0  0  0  0  0  0  0  0  0  0
   -5.6106   13.6402  -12.2589 C   0  0  0  0  0  0  0  0  0  0  0  0
   -6.1045   14.5768  -12.8828 O   0  0  0  0  0  0  0  0  0  0  0  0
   -5.9605   10.4846   -7.7337 C   0  0  0  0  0  0  0  0  0  0  0  0
   -4.8084    9.7674   -8.0514 C   0  0  0  0  0  0  0  0  0  0  0  0
   -3.5547   10.3189   -7.8020 C   0  0  0  0  0  0  0  0  0  0  0  0
   -3.4471   11.5931   -7.2348 C   0  0  0  0  0  0  0  0  0  0  0  0
   -4.6026   12.3073   -6.9145 C   0  0  0  0  0  0  0  0  0  0  0  0
   -5.8562   11.7556   -7.1614 C   0  0  0  0  0  0  0  0  0  0  0  0
   -2.1021   12.1835   -6.9708 C   0  0  0  0  0  0  0  0  0  0  0  0
   -1.7710   13.4390   -6.4702 C   0  0  0  0  0  0  0  0  0  0  0  0
   -0.4354   13.4950   -6.4103 N   0  0  0  0  0  0  0  0  0  0  0  0
    0.1709   12.4112   -6.8070 N   0  0  0  0  0  0  0  0  0  0  0  0
   -0.8030   11.5943   -7.1763 C   0  0  0  0  0  0  0  0  0  0  0  0
    0.3771   14.6141   -5.9576 C   0  0  0  0  0  0  0  0  0  0  0  0
   -3.4422   12.5360  -11.3947 C   0  0  0  0  0  0  0  0  0  0  0  0
   -2.3230   13.6139  -11.4067 C   0  0  0  0  0  0  0  0  0  0  0  0
   -3.2958   14.6820  -11.9593 C   0  0  0  0  0  0  0  0  0  0  0  0
   -1.7380   13.9356  -10.1565 O   0  0  0  0  0  0  0  0  0  0  0  0
   -6.0005   12.2762   -9.9046 H   0  0  0  0  0  0  0  0  0  0  0  0
   -8.1812   10.1071  -13.8902 H   0  0  0  0  0  0  0  0  0  0  0  0
   -6.9530   12.2555  -14.0918 H   0  0  0  0  0  0  0  0  0  0  0  0
   -6.3101   10.0314  -10.7584 H   0  0  0  0  0  0  0  0  0  0  0  0
   -8.6477    7.9894   -9.4364 H   0  0  0  0  0  0  0  0  0  0  0  0
   -8.0288    9.5892   -7.2517 H   0  0  0  0  0  0  0  0  0  0  0  0
   -4.8882    8.7841   -8.4909 H   0  0  0  0  0  0  0  0  0  0  0  0
   -2.6627    9.7615   -8.0471 H   0  0  0  0  0  0  0  0  0  0  0  0
   -4.5238   13.2903   -6.4741 H   0  0  0  0  0  0  0  0  0  0  0  0
   -6.7487   12.3097   -6.9107 H   0  0  0  0  0  0  0  0  0  0  0  0
   -2.4606   14.2195   -6.1845 H   0  0  0  0  0  0  0  0  0  0  0  0
   -0.6435   10.6063   -7.5823 H   0  0  0  0  0  0  0  0  0  0  0  0
    1.4419   14.3470   -6.0280 H   0  0  0  0  0  0  0  0  0  0  0  0
    0.1769   15.4918   -6.5897 H   0  0  0  0  0  0  0  0  0  0  0  0
    0.1266   14.8499   -4.9128 H   0  0  0  0  0  0  0  0  0  0  0  0
   -3.6551   12.0930  -10.4106 H   0  0  0  0  0  0  0  0  0  0  0  0
   -3.3293   11.7354  -12.1405 H   0  0  0  0  0  0  0  0  0  0  0  0
   -1.5662   13.3629  -12.1645 H   0  0  0  0  0  0  0  0  0  0  0  0
   -3.1063   14.9918  -12.9976 H   0  0  0  0  0  0  0  0  0  0  0  0
   -3.4165   15.5738  -11.3267 H   0  0  0  0  0  0  0  0  0  0  0  0
   -1.0709   14.6005  -10.2803 H   0  0  0  0  0  0  0  0  0  0  0  0
  1  2  2  0  0  0  0
  1  4  1  0  0  0  0
  1 12  1  0  0  0  0
  2  6  1  0  0  0  0
  3  4  2  0  0  0  0
  3  5  1  0  0  0  0
  5  6  1  0  0  0  0
  5  9  2  0  0  0  0
  6  7  1  0  0  0  0
  7  8  1  0  0  0  0
  7 10  2  3  0  0  0
  8  9  1  0  0  0  0
 10 14  1  0  0  0  0
 11 12  1  0  0  0  0
 11 26  1  0  0  0  0
 11 28  1  0  0  0  0
 12 13  2  0  0  0  0
 14 15  2  0  0  0  0
 14 19  1  0  0  0  0
 15 16  1  0  0  0  0
 16 17  2  0  0  0  0
 17 18  1  0  0  0  0
 17 20  1  0  0  0  0
 18 19  2  0  0  0  0
 20 21  2  0  0  0  0
 20 24  1  0  0  0  0
 21 22  1  0  0  0  0
 22 23  1  0  0  0  0
 22 25  1  0  0  0  0
 23 24  2  0  0  0  0
 26 27  1  0  0  0  0
 27 28  1  0  0  0  0
 27 29  1  0  0  0  0
  2 30  1  0  0  0  0
  3 31  1  0  0  0  0
  4 32  1  0  0  0  0
  6 33  1  0  0  0  0
  8 34  1  0  0  0  0
 10 35  1  0  0  0  0
 15 36  1  0  0  0  0
 16 37  1  0  0  0  0
 18 38  1  0  0  0  0
 19 39  1  0  0  0  0
 21 40  1  0  0  0  0
 24 41  1  0  0  0  0
 25 42  1  0  0  0  0
 25 43  1  0  0  0  0
 25 44  1  0  0  0  0
 26 45  1  0  0  0  0
 26 46  1  0  0  0  0
 27 47  1  0  0  0  0
 28 48  1  0  0  0  0
 28 49  1  0  0  0  0
 29 50  1  0  0  0  0
M  END
> <Name>
35

> <IC50[uM]>
0.004

$$$$
35
  -OEChem-05192314333D
 Structure written by MMmdl.
 50 54  0     1  0  0  0  0  0999 V2000
   -6.3895   12.3678  -12.0373 C   0  0  0  0  0  0  0  0  0  0  0  0
   -6.4824   11.8098  -10.7511 C   0  0  0  0  0  0  0  0  0  0  0  0
   -7.7271   10.5745  -13.0290 C   0  0  0  0  0  0  0  0  0  0  0  0
   -7.0179   11.7711  -13.1287 C   0  0  0  0  0  0  0  0  0  0  0  0
   -7.8170   10.0145  -11.7522 C   0  0  0  0  0  0  0  0  0  0  0  0
   -7.2238   10.6236  -10.6024 C   0  0  0  0  0  0  0  0  0  0  0  0
   -7.6044    9.7508   -9.5065 C   0  0  0  0  0  0  0  0  0  0  0  0
   -8.2828    8.7443   -9.9813 N   0  0  0  0  0  0  0  0  0  0  0  0
   -8.4172    8.8704  -11.2949 N   0  0  0  0  0  0  0  0  0  0  0  0
   -7.3303    9.8854   -8.0203 C   0  0  0  0  0  0  0  0  0  0  0  0
   -4.3418   13.6528  -11.7950 N   0  0  0  0  0  0  0  0  0  0  0  0
   -5.6106   13.6402  -12.2589 C   0  0  0  0  0  0  0  0  0  0  0  0
   -6.1045   14.5768  -12.8828 O   0  0  0  0  0  0  0  0  0  0  0  0
   -5.9605   10.4846   -7.7337 C   0  0  0  0  0  0  0  0  0  0  0  0
   -4.8084    9.7674   -8.0514 C   0  0  0  0  0  0  0  0  0  0  0  0
   -3.5547   10.3189   -7.8020 C   0  0  0  0  0  0  0  0  0  0  0  0
   -3.4471   11.5931   -7.2348 C   0  0  0  0  0  0  0  0  0  0  0  0
   -4.6026   12.3073   -6.9145 C   0  0  0  0  0  0  0  0  0  0  0  0
   -5.8562   11.7556   -7.1614 C   0  0  0  0  0  0  0  0  0  0  0  0
   -2.1021   12.1835   -6.9708 C   0  0  0  0  0  0  0  0  0  0  0  0
   -1.7710   13.4390   -6.4702 C   0  0  0  0  0  0  0  0  0  0  0  0
   -0.4354   13.4950   -6.4103 N   0  0  3  0  0  0  0  0  0  0  0  0
    0.1709   12.4112   -6.8070 N   0  0  0  0  0  0  0  0  0  0  0  0
   -0.8030   11.5943   -7.1763 C   0  0  0  0  0  0  0  0  0  0  0  0
    0.3771   14.6141   -5.9576 C   0  0  0  0  0  0  0  0  0  0  0  0
   -3.4422   12.5360  -11.3947 C   0  0  0  0  0  0  0  0  0  0  0  0
   -2.3230   13.6139  -11.4067 C   0  0  0  0  0  0  0  0  0  0  0  0
   -3.2958   14.6820  -11.9593 C   0  0  0  0  0  0  0  0  0  0  0  0
   -1.7380   13.9356  -10.1565 O   0  0  0  0  0  0  0  0  0  0  0  0
   -6.0005   12.2762   -9.9046 H   0  0  0  0  0  0  0  0  0  0  0  0
   -8.1812   10.1071  -13.8902 H   0  0  0  0  0  0  0  0  0  0  0  0
   -6.9530   12.2555  -14.0918 H   0  0  0  0  0  0  0  0  0  0  0  0
   -8.0288    9.5892   -7.2517 H   0  0  0  0  0  0  0  0  0  0  0  0
   -5.9694   10.0313   -6.7315 H   0  0  0  0  0  0  0  0  0  0  0  0
   -4.8882    8.7841   -8.4909 H   0  0  0  0  0  0  0  0  0  0  0  0
   -2.6627    9.7615   -8.0471 H   0  0  0  0  0  0  0  0  0  0  0  0
   -4.5238   13.2903   -6.4741 H   0  0  0  0  0  0  0  0  0  0  0  0
   -6.7487   12.3097   -6.9107 H   0  0  0  0  0  0  0  0  0  0  0  0
   -2.1527   14.2251   -7.1383 H   0  0  0  0  0  0  0  0  0  0  0  0
   -2.2003   13.5709   -5.4661 H   0  0  0  0  0  0  0  0  0  0  0  0
   -0.6435   10.6063   -7.5823 H   0  0  0  0  0  0  0  0  0  0  0  0
    1.4419   14.3470   -6.0280 H   0  0  0  0  0  0  0  0  0  0  0  0
    0.1769   15.4918   -6.5897 H   0  0  0  0  0  0  0  0  0  0  0  0
    0.1266   14.8499   -4.9128 H   0  0  0  0  0  0  0  0  0  0  0  0
   -3.6551   12.0930  -10.4106 H   0  0  0  0  0  0  0  0  0  0  0  0
   -3.3293   11.7354  -12.1405 H   0  0  0  0  0  0  0  0  0  0  0  0
   -1.5662   13.3629  -12.1645 H   0  0  0  0  0  0  0  0  0  0  0  0
   -3.1063   14.9918  -12.9976 H   0  0  0  0  0  0  0  0  0  0  0  0
   -3.4165   15.5738  -11.3267 H   0  0  0  0  0  0  0  0  0  0  0  0
   -1.0709   14.6005  -10.2803 H   0  0  0  0  0  0  0  0  0  0  0  0
  1  2  2  0  0  0  0
  1  4  1  0  0  0  0
  1 12  1  0  0  0  0
  2  6  1  0  0  0  0
  3  4  2  0  0  0  0
  3  5  1  0  0  0  0
  5  6  2  0  0  0  0
  5  9  1  0  0  0  0
  6  7  1  0  0  0  0
  7  8  1  0  0  0  0
  7 10  2  3  0  0  0
  8  9  2  0  0  0  0
 10 14  1  0  0  0  0
 11 12  1  0  0  0  0
 11 26  1  0  0  0  0
 11 28  1  0  0  0  0
 12 13  2  0  0  0  0
 14 15  1  0  0  0  0
 14 19  1  0  0  0  0
 15 16  2  0  0  0  0
 16 17  1  0  0  0  0
 17 18  1  0  0  0  0
 17 20  2  0  0  0  0
 18 19  2  0  0  0  0
 20 21  1  0  0  0  0
 20 24  1  0  0  0  0
 21 22  1  0  0  0  0
 22 23  1  0  0  0  0
 22 25  1  0  0  0  0
 23 24  2  0  0  0  0
 26 27  1  0  0  0  0
 27 28  1  0  0  0  0
 27 29  1  0  0  0  0
  2 30  1  0  0  0  0
  3 31  1  0  0  0  0
  4 32  1  0  0  0  0
 10 33  1  0  0  0  0
 14 34  1  0  0  0  0
 15 35  1  0  0  0  0
 16 36  1  0  0  0  0
 18 37  1  0  0  0  0
 19 38  1  0  0  0  0
 21 39  1  0  0  0  0
 21 40  1  0  0  0  0
 24 41  1  0  0  0  0
 25 42  1  0  0  0  0
 25 43  1  0  0  0  0
 25 44  1  0  0  0  0
 26 45  1  0  0  0  0
 26 46  1  0  0  0  0
 27 47  1  0  0  0  0
 28 48  1  0  0  0  0
 28 49  1  0  0  0  0
 29 50  1  0  0  0  0
M  END
> <Name>
35

> <IC50[uM]>
0.004

$$$$
35
  -OEChem-05192314333D
 Structure written by MMmdl.
 50 54  0     1  0  0  0  0  0999 V2000
   -6.3895   12.3678  -12.0373 C   0  0  0  0  0  0  0  0  0  0  0  0
   -6.4824   11.8098  -10.7511 C   0  0  0  0  0  0  0  0  0  0  0  0
   -7.7271   10.5745  -13.0290 C   0  0  0  0  0  0  0  0  0  0  0  0
   -7.0179   11.7711  -13.1287 C   0  0  0  0  0  0  0  0  0  0  0  0
   -7.8170   10.0145  -11.7522 C   0  0  0  0  0  0  0  0  0  0  0  0
   -7.2238   10.6236  -10.6024 C   0  0  0  0  0  0  0  0  0  0  0  0
   -7.6044    9.7508   -9.5065 C   0  0  0  0  0  0  0  0  0  0  0  0
   -8.2828    8.7443   -9.9813 N   0  0  0  0  0  0  0  0  0  0  0  0
   -8.4172    8.8704  -11.2949 N   0  0  0  0  0  0  0  0  0  0  0  0
   -7.3303    9.8854   -8.0203 C   0  0  0  0  0  0  0  0  0  0  0  0
   -4.3418   13.6528  -11.7950 N   0  0  0  0  0  0  0  0  0  0  0  0
   -5.6106   13.6402  -12.2589 C   0  0  0  0  0  0  0  0  0  0  0  0
   -6.1045   14.5768  -12.8828 O   0  0  0  0  0  0  0  0  0  0  0  0
   -5.9605   10.4846   -7.7337 C   0  0  0  0  0  0  0  0  0  0  0  0
   -4.8084    9.7674   -8.0514 C   0  0  0  0  0  0  0  0  0  0  0  0
   -3.5547   10.3189   -7.8020 C   0  0  0  0  0  0  0  0  0  0  0  0
   -3.4471   11.5931   -7.2348 C   0  0  0  0  0  0  0  0  0  0  0  0
   -4.6026   12.3073   -6.9145 C   0  0  0  0  0  0  0  0  0  0  0  0
   -5.8562   11.7556   -7.1614 C   0  0  0  0  0  0  0  0  0  0  0  0
   -2.1021   12.1835   -6.9708 C   0  0  0  0  0  0  0  0  0  0  0  0
   -1.7710   13.4390   -6.4702 C   0  0  0  0  0  0  0  0  0  0  0  0
   -0.4354   13.4950   -6.4103 N   0  0  3  0  0  0  0  0  0  0  0  0
    0.1709   12.4112   -6.8070 N   0  0  0  0  0  0  0  0  0  0  0  0
   -0.8030   11.5943   -7.1763 C   0  0  0  0  0  0  0  0  0  0  0  0
    0.3771   14.6141   -5.9576 C   0  0  0  0  0  0  0  0  0  0  0  0
   -3.4422   12.5360  -11.3947 C   0  0  0  0  0  0  0  0  0  0  0  0
   -2.3230   13.6139  -11.4067 C   0  0  0  0  0  0  0  0  0  0  0  0
   -3.2958   14.6820  -11.9593 C   0  0  0  0  0  0  0  0  0  0  0  0
   -1.7380   13.9356  -10.1565 O   0  0  0  0  0  0  0  0  0  0  0  0
   -6.0005   12.2762   -9.9046 H   0  0  0  0  0  0  0  0  0  0  0  0
   -8.1812   10.1071  -13.8902 H   0  0  0  0  0  0  0  0  0  0  0  0
   -6.9530   12.2555  -14.0918 H   0  0  0  0  0  0  0  0  0  0  0  0
   -8.0288    9.5892   -7.2517 H   0  0  0  0  0  0  0  0  0  0  0  0
   -4.8882    8.7841   -8.4909 H   0  0  0  0  0  0  0  0  0  0  0  0
   -3.0328    9.6260   -7.1255 H   0  0  0  0  0  0  0  0  0  0  0  0
   -3.0275   10.3562   -8.7667 H   0  0  0  0  0  0  0  0  0  0  0  0
   -4.5238   13.2903   -6.4741 H   0  0  0  0  0  0  0  0  0  0  0  0
   -6.7487   12.3097   -6.9107 H   0  0  0  0  0  0  0  0  0  0  0  0
   -2.1527   14.2251   -7.1383 H   0  0  0  0  0  0  0  0  0  0  0  0
   -2.2003   13.5709   -5.4661 H   0  0  0  0  0  0  0  0  0  0  0  0
   -0.6435   10.6063   -7.5823 H   0  0  0  0  0  0  0  0  0  0  0  0
    1.4419   14.3470   -6.0280 H   0  0  0  0  0  0  0  0  0  0  0  0
    0.1769   15.4918   -6.5897 H   0  0  0  0  0  0  0  0  0  0  0  0
    0.1266   14.8499   -4.9128 H   0  0  0  0  0  0  0  0  0  0  0  0
   -3.6551   12.0930  -10.4106 H   0  0  0  0  0  0  0  0  0  0  0  0
   -3.3293   11.7354  -12.1405 H   0  0  0  0  0  0  0  0  0  0  0  0
   -1.5662   13.3629  -12.1645 H   0  0  0  0  0  0  0  0  0  0  0  0
   -3.1063   14.9918  -12.9976 H   0  0  0  0  0  0  0  0  0  0  0  0
   -3.4165   15.5738  -11.3267 H   0  0  0  0  0  0  0  0  0  0  0  0
   -1.0709   14.6005  -10.2803 H   0  0  0  0  0  0  0  0  0  0  0  0
  1  2  2  0  0  0  0
  1  4  1  0  0  0  0
  1 12  1  0  0  0  0
  2  6  1  0  0  0  0
  3  4  2  0  0  0  0
  3  5  1  0  0  0  0
  5  6  2  0  0  0  0
  5  9  1  0  0  0  0
  6  7  1  0  0  0  0
  7  8  1  0  0  0  0
  7 10  2  3  0  0  0
  8  9  2  0  0  0  0
 10 14  1  0  0  0  0
 11 12  1  0  0  0  0
 11 26  1  0  0  0  0
 11 28  1  0  0  0  0
 12 13  2  0  0  0  0
 14 15  2  0  0  0  0
 14 19  1  0  0  0  0
 15 16  1  0  0  0  0
 16 17  1  0  0  0  0
 17 18  1  0  0  0  0
 17 20  2  0  0  0  0
 18 19  2  0  0  0  0
 20 21  1  0  0  0  0
 20 24  1  0  0  0  0
 21 22  1  0  0  0  0
 22 23  1  0  0  0  0
 22 25  1  0  0  0  0
 23 24  2  0  0  0  0
 26 27  1  0  0  0  0
 27 28  1  0  0  0  0
 27 29  1  0  0  0  0
  2 30  1  0  0  0  0
  3 31  1  0  0  0  0
  4 32  1  0  0  0  0
 10 33  1  0  0  0  0
 15 34  1  0  0  0  0
 16 35  1  0  0  0  0
 16 36  1  0  0  0  0
 18 37  1  0  0  0  0
 19 38  1  0  0  0  0
 21 39  1  0  0  0  0
 21 40  1  0  0  0  0
 24 41  1  0  0  0  0
 25 42  1  0  0  0  0
 25 43  1  0  0  0  0
 25 44  1  0  0  0  0
 26 45  1  0  0  0  0
 26 46  1  0  0  0  0
 27 47  1  0  0  0  0
 28 48  1  0  0  0  0
 28 49  1  0  0  0  0
 29 50  1  0  0  0  0
M  END
> <Name>
35

> <IC50[uM]>
0.004

$$$$
35
  -OEChem-05192314333D
 Structure written by MMmdl.
 50 54  0     1  0  0  0  0  0999 V2000
   -6.3895   12.3678  -12.0373 C   0  0  3  0  0  0  0  0  0  0  0  0
   -6.4824   11.8098  -10.7511 C   0  0  0  0  0  0  0  0  0  0  0  0
   -7.7271   10.5745  -13.0290 C   0  0  0  0  0  0  0  0  0  0  0  0
   -7.0179   11.7711  -13.1287 C   0  0  0  0  0  0  0  0  0  0  0  0
   -7.8170   10.0145  -11.7522 C   0  0  0  0  0  0  0  0  0  0  0  0
   -7.2238   10.6236  -10.6024 C   0  0  0  0  0  0  0  0  0  0  0  0
   -7.6044    9.7508   -9.5065 C   0  0  0  0  0  0  0  0  0  0  0  0
   -8.2828    8.7443   -9.9813 N   0  0  0  0  0  0  0  0  0  0  0  0
   -8.4172    8.8704  -11.2949 N   0  0  0  0  0  0  0  0  0  0  0  0
   -7.3303    9.8854   -8.0203 C   0  0  0  0  0  0  0  0  0  0  0  0
   -4.3418   13.6528  -11.7950 N   0  0  0  0  0  0  0  0  0  0  0  0
   -5.6106   13.6402  -12.2589 C   0  0  0  0  0  0  0  0  0  0  0  0
   -6.1045   14.5768  -12.8828 O   0  0  0  0  0  0  0  0  0  0  0  0
   -5.9605   10.4846   -7.7337 C   0  0  0  0  0  0  0  0  0  0  0  0
   -4.8084    9.7674   -8.0514 C   0  0  0  0  0  0  0  0  0  0  0  0
   -3.5547   10.3189   -7.8020 C   0  0  0  0  0  0  0  0  0  0  0  0
   -3.4471   11.5931   -7.2348 C   0  0  0  0  0  0  0  0  0  0  0  0
   -4.6026   12.3073   -6.9145 C   0  0  0  0  0  0  0  0  0  0  0  0
   -5.8562   11.7556   -7.1614 C   0  0  0  0  0  0  0  0  0  0  0  0
   -2.1021   12.1835   -6.9708 C   0  0  0  0  0  0  0  0  0  0  0  0
   -1.7710   13.4390   -6.4702 C   0  0  0  0  0  0  0  0  0  0  0  0
   -0.4354   13.4950   -6.4103 N   0  0  3  0  0  0  0  0  0  0  0  0
    0.1709   12.4112   -6.8070 N   0  0  0  0  0  0  0  0  0  0  0  0
   -0.8030   11.5943   -7.1763 C   0  0  0  0  0  0  0  0  0  0  0  0
    0.3771   14.6141   -5.9576 C   0  0  0  0  0  0  0  0  0  0  0  0
   -3.4422   12.5360  -11.3947 C   0  0  0  0  0  0  0  0  0  0  0  0
   -2.3230   13.6139  -11.4067 C   0  0  0  0  0  0  0  0  0  0  0  0
   -3.2958   14.6820  -11.9593 C   0  0  0  0  0  0  0  0  0  0  0  0
   -1.7380   13.9356  -10.1565 O   0  0  0  0  0  0  0  0  0  0  0  0
   -5.4830   11.7758  -12.2318 H   0  0  0  0  0  0  0  0  0  0  0  0
   -6.0005   12.2762   -9.9046 H   0  0  0  0  0  0  0  0  0  0  0  0
   -8.1812   10.1071  -13.8902 H   0  0  0  0  0  0  0  0  0  0  0  0
   -6.9530   12.2555  -14.0918 H   0  0  0  0  0  0  0  0  0  0  0  0
   -8.0288    9.5892   -7.2517 H   0  0  0  0  0  0  0  0  0  0  0  0
   -4.8882    8.7841   -8.4909 H   0  0  0  0  0  0  0  0  0  0  0  0
   -2.6627    9.7615   -8.0471 H   0  0  0  0  0  0  0  0  0  0  0  0
   -4.5238   13.2903   -6.4741 H   0  0  0  0  0  0  0  0  0  0  0  0
   -6.7487   12.3097   -6.9107 H   0  0  0  0  0  0  0  0  0  0  0  0
   -2.1527   14.2251   -7.1383 H   0  0  0  0  0  0  0  0  0  0  0  0
   -2.2003   13.5709   -5.4661 H   0  0  0  0  0  0  0  0  0  0  0  0
   -0.6435   10.6063   -7.5823 H   0  0  0  0  0  0  0  0  0  0  0  0
    1.4419   14.3470   -6.0280 H   0  0  0  0  0  0  0  0  0  0  0  0
    0.1769   15.4918   -6.5897 H   0  0  0  0  0  0  0  0  0  0  0  0
    0.1266   14.8499   -4.9128 H   0  0  0  0  0  0  0  0  0  0  0  0
   -3.6551   12.0930  -10.4106 H   0  0  0  0  0  0  0  0  0  0  0  0
   -3.3293   11.7354  -12.1405 H   0  0  0  0  0  0  0  0  0  0  0  0
   -1.5662   13.3629  -12.1645 H   0  0  0  0  0  0  0  0  0  0  0  0
   -3.1063   14.9918  -12.9976 H   0  0  0  0  0  0  0  0  0  0  0  0
   -3.4165   15.5738  -11.3267 H   0  0  0  0  0  0  0  0  0  0  0  0
   -1.0709   14.6005  -10.2803 H   0  0  0  0  0  0  0  0  0  0  0  0
  1  2  1  0  0  0  0
  1  4  1  0  0  0  0
  1 12  1  0  0  0  0
  2  6  2  0  0  0  0
  3  4  2  0  0  0  0
  3  5  1  0  0  0  0
  5  6  1  0  0  0  0
  5  9  2  0  0  0  0
  6  7  1  0  0  0  0
  7  8  2  0  0  0  0
  7 10  1  0  0  0  0
  8  9  1  0  0  0  0
 10 14  2  0  0  0  0
 11 12  1  0  0  0  0
 11 26  1  0  0  0  0
 11 28  1  0  0  0  0
 12 13  2  0  0  0  0
 14 15  1  0  0  0  0
 14 19  1  0  0  0  0
 15 16  2  0  0  0  0
 16 17  1  0  0  0  0
 17 18  1  0  0  0  0
 17 20  2  0  0  0  0
 18 19  2  0  0  0  0
 20 21  1  0  0  0  0
 20 24  1  0  0  0  0
 21 22  1  0  0  0  0
 22 23  1  0  0  0  0
 22 25  1  0  0  0  0
 23 24  2  0  0  0  0
 26 27  1  0  0  0  0
 27 28  1  0  0  0  0
 27 29  1  0  0  0  0
  1 30  1  0  0  0  0
  2 31  1  0  0  0  0
  3 32  1  0  0  0  0
  4 33  1  0  0  0  0
 10 34  1  0  0  0  0
 15 35  1  0  0  0  0
 16 36  1  0  0  0  0
 18 37  1  0  0  0  0
 19 38  1  0  0  0  0
 21 39  1  0  0  0  0
 21 40  1  0  0  0  0
 24 41  1  0  0  0  0
 25 42  1  0  0  0  0
 25 43  1  0  0  0  0
 25 44  1  0  0  0  0
 26 45  1  0  0  0  0
 26 46  1  0  0  0  0
 27 47  1  0  0  0  0
 28 48  1  0  0  0  0
 28 49  1  0  0  0  0
 29 50  1  0  0  0  0
M  END
> <Name>
35

> <IC50[uM]>
0.004

$$$$
35
  -OEChem-05192314333D
 Structure written by MMmdl.
 50 54  0     1  0  0  0  0  0999 V2000
   -6.3895   12.3678  -12.0373 C   0  0  0  0  0  0  0  0  0  0  0  0
   -6.4824   11.8098  -10.7511 C   0  0  0  0  0  0  0  0  0  0  0  0
   -7.7271   10.5745  -13.0290 C   0  0  0  0  0  0  0  0  0  0  0  0
   -7.0179   11.7711  -13.1287 C   0  0  0  0  0  0  0  0  0  0  0  0
   -7.8170   10.0145  -11.7522 C   0  0  0  0  0  0  0  0  0  0  0  0
   -7.2238   10.6236  -10.6024 C   0  0  3  0  0  0  0  0  0  0  0  0
   -7.6044    9.7508   -9.5065 C   0  0  0  0  0  0  0  0  0  0  0  0
   -8.2828    8.7443   -9.9813 N   0  0  0  0  0  0  0  0  0  0  0  0
   -8.4172    8.8704  -11.2949 N   0  0  0  0  0  0  0  0  0  0  0  0
   -7.3303    9.8854   -8.0203 C   0  0  0  0  0  0  0  0  0  0  0  0
   -4.3418   13.6528  -11.7950 N   0  0  0  0  0  0  0  0  0  0  0  0
   -5.6106   13.6402  -12.2589 C   0  0  0  0  0  0  0  0  0  0  0  0
   -6.1045   14.5768  -12.8828 O   0  0  0  0  0  0  0  0  0  0  0  0
   -5.9605   10.4846   -7.7337 C   0  0  0  0  0  0  0  0  0  0  0  0
   -4.8084    9.7674   -8.0514 C   0  0  0  0  0  0  0  0  0  0  0  0
   -3.5547   10.3189   -7.8020 C   0  0  0  0  0  0  0  0  0  0  0  0
   -3.4471   11.5931   -7.2348 C   0  0  0  0  0  0  0  0  0  0  0  0
   -4.6026   12.3073   -6.9145 C   0  0  0  0  0  0  0  0  0  0  0  0
   -5.8562   11.7556   -7.1614 C   0  0  0  0  0  0  0  0  0  0  0  0
   -2.1021   12.1835   -6.9708 C   0  0  0  0  0  0  0  0  0  0  0  0
   -1.7710   13.4390   -6.4702 C   0  0  0  0  0  0  0  0  0  0  0  0
   -0.4354   13.4950   -6.4103 N   0  0  3  0  0  0  0  0  0  0  0  0
    0.1709   12.4112   -6.8070 N   0  0  0  0  0  0  0  0  0  0  0  0
   -0.8030   11.5943   -7.1763 C   0  0  0  0  0  0  0  0  0  0  0  0
    0.3771   14.6141   -5.9576 C   0  0  0  0  0  0  0  0  0  0  0  0
   -3.4422   12.5360  -11.3947 C   0  0  0  0  0  0  0  0  0  0  0  0
   -2.3230   13.6139  -11.4067 C   0  0  0  0  0  0  0  0  0  0  0  0
   -3.2958   14.6820  -11.9593 C   0  0  0  0  0  0  0  0  0  0  0  0
   -1.7380   13.9356  -10.1565 O   0  0  0  0  0  0  0  0  0  0  0  0
   -6.0005   12.2762   -9.9046 H   0  0  0  0  0  0  0  0  0  0  0  0
   -8.1812   10.1071  -13.8902 H   0  0  0  0  0  0  0  0  0  0  0  0
   -6.9530   12.2555  -14.0918 H   0  0  0  0  0  0  0  0  0  0  0  0
   -6.3101   10.0314  -10.7584 H   0  0  0  0  0  0  0  0  0  0  0  0
   -8.0288    9.5892   -7.2517 H   0  0  0  0  0  0  0  0  0  0  0  0
   -4.8882    8.7841   -8.4909 H   0  0  0  0  0  0  0  0  0  0  0  0
   -2.6627    9.7615   -8.0471 H   0  0  0  0  0  0  0  0  0  0  0  0
   -4.5238   13.2903   -6.4741 H   0  0  0  0  0  0  0  0  0  0  0  0
   -6.7487   12.3097   -6.9107 H   0  0  0  0  0  0  0  0  0  0  0  0
   -2.1527   14.2251   -7.1383 H   0  0  0  0  0  0  0  0  0  0  0  0
   -2.2003   13.5709   -5.4661 H   0  0  0  0  0  0  0  0  0  0  0  0
   -0.6435   10.6063   -7.5823 H   0  0  0  0  0  0  0  0  0  0  0  0
    1.4419   14.3470   -6.0280 H   0  0  0  0  0  0  0  0  0  0  0  0
    0.1769   15.4918   -6.5897 H   0  0  0  0  0  0  0  0  0  0  0  0
    0.1266   14.8499   -4.9128 H   0  0  0  0  0  0  0  0  0  0  0  0
   -3.6551   12.0930  -10.4106 H   0  0  0  0  0  0  0  0  0  0  0  0
   -3.3293   11.7354  -12.1405 H   0  0  0  0  0  0  0  0  0  0  0  0
   -1.5662   13.3629  -12.1645 H   0  0  0  0  0  0  0  0  0  0  0  0
   -3.1063   14.9918  -12.9976 H   0  0  0  0  0  0  0  0  0  0  0  0
   -3.4165   15.5738  -11.3267 H   0  0  0  0  0  0  0  0  0  0  0  0
   -1.0709   14.6005  -10.2803 H   0  0  0  0  0  0  0  0  0  0  0  0
  1  2  2  0  0  0  0
  1  4  1  0  0  0  0
  1 12  1  0  0  0  0
  2  6  1  0  0  0  0
  3  4  2  0  0  0  0
  3  5  1  0  0  0  0
  5  6  1  0  0  0  0
  5  9  2  0  0  0  0
  6  7  1  0  0  0  0
  7  8  2  0  0  0  0
  7 10  1  0  0  0  0
  8  9  1  0  0  0  0
 10 14  2  0  0  0  0
 11 12  1  0  0  0  0
 11 26  1  0  0  0  0
 11 28  1  0  0  0  0
 12 13  2  0  0  0  0
 14 15  1  0  0  0  0
 14 19  1  0  0  0  0
 15 16  2  0  0  0  0
 16 17  1  0  0  0  0
 17 18  1  0  0  0  0
 17 20  2  0  0  0  0
 18 19  2  0  0  0  0
 20 21  1  0  0  0  0
 20 24  1  0  0  0  0
 21 22  1  0  0  0  0
 22 23  1  0  0  0  0
 22 25  1  0  0  0  0
 23 24  2  0  0  0  0
 26 27  1  0  0  0  0
 27 28  1  0  0  0  0
 27 29  1  0  0  0  0
  2 30  1  0  0  0  0
  3 31  1  0  0  0  0
  4 32  1  0  0  0  0
  6 33  1  0  0  0  0
 10 34  1  0  0  0  0
 15 35  1  0  0  0  0
 16 36  1  0  0  0  0
 18 37  1  0  0  0  0
 19 38  1  0  0  0  0
 21 39  1  0  0  0  0
 21 40  1  0  0  0  0
 24 41  1  0  0  0  0
 25 42  1  0  0  0  0
 25 43  1  0  0  0  0
 25 44  1  0  0  0  0
 26 45  1  0  0  0  0
 26 46  1  0  0  0  0
 27 47  1  0  0  0  0
 28 48  1  0  0  0  0
 28 49  1  0  0  0  0
 29 50  1  0  0  0  0
M  END
> <Name>
35

> <IC50[uM]>
0.004

$$$$
35
  -OEChem-05192314333D
 Structure written by MMmdl.
 50 54  0     1  0  0  0  0  0999 V2000
   -6.3895   12.3678  -12.0373 C   0  0  0  0  0  0  0  0  0  0  0  0
   -6.4824   11.8098  -10.7511 C   0  0  0  0  0  0  0  0  0  0  0  0
   -7.7271   10.5745  -13.0290 C   0  0  0  0  0  0  0  0  0  0  0  0
   -7.0179   11.7711  -13.1287 C   0  0  0  0  0  0  0  0  0  0  0  0
   -7.8170   10.0145  -11.7522 C   0  0  0  0  0  0  0  0  0  0  0  0
   -7.2238   10.6236  -10.6024 C   0  0  0  0  0  0  0  0  0  0  0  0
   -7.6044    9.7508   -9.5065 C   0  0  0  0  0  0  0  0  0  0  0  0
   -8.2828    8.7443   -9.9813 N   0  0  0  0  0  0  0  0  0  0  0  0
   -8.4172    8.8704  -11.2949 N   0  0  0  0  0  0  0  0  0  0  0  0
   -7.3303    9.8854   -8.0203 C   0  0  0  0  0  0  0  0  0  0  0  0
   -4.3418   13.6528  -11.7950 N   0  0  0  0  0  0  0  0  0  0  0  0
   -5.6106   13.6402  -12.2589 C   0  0  0  0  0  0  0  0  0  0  0  0
   -6.1045   14.5768  -12.8828 O   0  0  0  0  0  0  0  0  0  0  0  0
   -5.9605   10.4846   -7.7337 C   0  0  0  0  0  0  0  0  0  0  0  0
   -4.8084    9.7674   -8.0514 C   0  0  0  0  0  0  0  0  0  0  0  0
   -3.5547   10.3189   -7.8020 C   0  0  0  0  0  0  0  0  0  0  0  0
   -3.4471   11.5931   -7.2348 C   0  0  0  0  0  0  0  0  0  0  0  0
   -4.6026   12.3073   -6.9145 C   0  0  0  0  0  0  0  0  0  0  0  0
   -5.8562   11.7556   -7.1614 C   0  0  0  0  0  0  0  0  0  0  0  0
   -2.1021   12.1835   -6.9708 C   0  0  0  0  0  0  0  0  0  0  0  0
   -1.7710   13.4390   -6.4702 C   0  0  0  0  0  0  0  0  0  0  0  0
   -0.4354   13.4950   -6.4103 N   0  0  3  0  0  0  0  0  0  0  0  0
    0.1709   12.4112   -6.8070 N   0  0  0  0  0  0  0  0  0  0  0  0
   -0.8030   11.5943   -7.1763 C   0  0  0  0  0  0  0  0  0  0  0  0
    0.3771   14.6141   -5.9576 C   0  0  0  0  0  0  0  0  0  0  0  0
   -3.4422   12.5360  -11.3947 C   0  0  0  0  0  0  0  0  0  0  0  0
   -2.3230   13.6139  -11.4067 C   0  0  0  0  0  0  0  0  0  0  0  0
   -3.2958   14.6820  -11.9593 C   0  0  0  0  0  0  0  0  0  0  0  0
   -1.7380   13.9356  -10.1565 O   0  0  0  0  0  0  0  0  0  0  0  0
   -6.0005   12.2762   -9.9046 H   0  0  0  0  0  0  0  0  0  0  0  0
   -8.7506   10.7604  -13.3866 H   0  0  0  0  0  0  0  0  0  0  0  0
   -7.2377    9.8389  -13.6842 H   0  0  0  0  0  0  0  0  0  0  0  0
   -6.9530   12.2555  -14.0918 H   0  0  0  0  0  0  0  0  0  0  0  0
   -8.0288    9.5892   -7.2517 H   0  0  0  0  0  0  0  0  0  0  0  0
   -4.8882    8.7841   -8.4909 H   0  0  0  0  0  0  0  0  0  0  0  0
   -2.6627    9.7615   -8.0471 H   0  0  0  0  0  0  0  0  0  0  0  0
   -4.5238   13.2903   -6.4741 H   0  0  0  0  0  0  0  0  0  0  0  0
   -6.7487   12.3097   -6.9107 H   0  0  0  0  0  0  0  0  0  0  0  0
   -2.1527   14.2251   -7.1383 H   0  0  0  0  0  0  0  0  0  0  0  0
   -2.2003   13.5709   -5.4661 H   0  0  0  0  0  0  0  0  0  0  0  0
   -0.6435   10.6063   -7.5823 H   0  0  0  0  0  0  0  0  0  0  0  0
    1.4419   14.3470   -6.0280 H   0  0  0  0  0  0  0  0  0  0  0  0
    0.1769   15.4918   -6.5897 H   0  0  0  0  0  0  0  0  0  0  0  0
    0.1266   14.8499   -4.9128 H   0  0  0  0  0  0  0  0  0  0  0  0
   -3.6551   12.0930  -10.4106 H   0  0  0  0  0  0  0  0  0  0  0  0
   -3.3293   11.7354  -12.1405 H   0  0  0  0  0  0  0  0  0  0  0  0
   -1.5662   13.3629  -12.1645 H   0  0  0  0  0  0  0  0  0  0  0  0
   -3.1063   14.9918  -12.9976 H   0  0  0  0  0  0  0  0  0  0  0  0
   -3.4165   15.5738  -11.3267 H   0  0  0  0  0  0  0  0  0  0  0  0
   -1.0709   14.6005  -10.2803 H   0  0  0  0  0  0  0  0  0  0  0  0
  1  2  1  0  0  0  0
  1  4  2  0  0  0  0
  1 12  1  0  0  0  0
  2  6  2  0  0  0  0
  3  4  1  0  0  0  0
  3  5  1  0  0  0  0
  5  6  1  0  0  0  0
  5  9  2  0  0  0  0
  6  7  1  0  0  0  0
  7  8  2  0  0  0  0
  7 10  1  0  0  0  0
  8  9  1  0  0  0  0
 10 14  2  0  0  0  0
 11 12  1  0  0  0  0
 11 26  1  0  0  0  0
 11 28  1  0  0  0  0
 12 13  2  0  0  0  0
 14 15  1  0  0  0  0
 14 19  1  0  0  0  0
 15 16  2  0  0  0  0
 16 17  1  0  0  0  0
 17 18  1  0  0  0  0
 17 20  2  0  0  0  0
 18 19  2  0  0  0  0
 20 21  1  0  0  0  0
 20 24  1  0  0  0  0
 21 22  1  0  0  0  0
 22 23  1  0  0  0  0
 22 25  1  0  0  0  0
 23 24  2  0  0  0  0
 26 27  1  0  0  0  0
 27 28  1  0  0  0  0
 27 29  1  0  0  0  0
  2 30  1  0  0  0  0
  3 31  1  0  0  0  0
  3 32  1  0  0  0  0
  4 33  1  0  0  0  0
 10 34  1  0  0  0  0
 15 35  1  0  0  0  0
 16 36  1  0  0  0  0
 18 37  1  0  0  0  0
 19 38  1  0  0  0  0
 21 39  1  0  0  0  0
 21 40  1  0  0  0  0
 24 41  1  0  0  0  0
 25 42  1  0  0  0  0
 25 43  1  0  0  0  0
 25 44  1  0  0  0  0
 26 45  1  0  0  0  0
 26 46  1  0  0  0  0
 27 47  1  0  0  0  0
 28 48  1  0  0  0  0
 28 49  1  0  0  0  0
 29 50  1  0  0  0  0
M  END
> <Name>
35

> <IC50[uM]>
0.004

$$$$
35
  -OEChem-05192314333D
 Structure written by MMmdl.
 50 54  0     1  0  0  0  0  0999 V2000
   -6.3895   12.3678  -12.0373 C   0  0  0  0  0  0  0  0  0  0  0  0
   -6.4824   11.8098  -10.7511 C   0  0  0  0  0  0  0  0  0  0  0  0
   -7.7271   10.5745  -13.0290 C   0  0  0  0  0  0  0  0  0  0  0  0
   -7.0179   11.7711  -13.1287 C   0  0  0  0  0  0  0  0  0  0  0  0
   -7.8170   10.0145  -11.7522 C   0  0  3  0  0  0  0  0  0  0  0  0
   -7.2238   10.6236  -10.6024 C   0  0  0  0  0  0  0  0  0  0  0  0
   -7.6044    9.7508   -9.5065 C   0  0  0  0  0  0  0  0  0  0  0  0
   -8.2828    8.7443   -9.9813 N   0  0  0  0  0  0  0  0  0  0  0  0
   -8.4172    8.8704  -11.2949 N   0  0  0  0  0  0  0  0  0  0  0  0
   -7.3303    9.8854   -8.0203 C   0  0  0  0  0  0  0  0  0  0  0  0
   -4.3418   13.6528  -11.7950 N   0  0  0  0  0  0  0  0  0  0  0  0
   -5.6106   13.6402  -12.2589 C   0  0  0  0  0  0  0  0  0  0  0  0
   -6.1045   14.5768  -12.8828 O   0  0  0  0  0  0  0  0  0  0  0  0
   -5.9605   10.4846   -7.7337 C   0  0  0  0  0  0  0  0  0  0  0  0
   -4.8084    9.7674   -8.0514 C   0  0  0  0  0  0  0  0  0  0  0  0
   -3.5547   10.3189   -7.8020 C   0  0  0  0  0  0  0  0  0  0  0  0
   -3.4471   11.5931   -7.2348 C   0  0  0  0  0  0  0  0  0  0  0  0
   -4.6026   12.3073   -6.9145 C   0  0  0  0  0  0  0  0  0  0  0  0
   -5.8562   11.7556   -7.1614 C   0  0  0  0  0  0  0  0  0  0  0  0
   -2.1021   12.1835   -6.9708 C   0  0  0  0  0  0  0  0  0  0  0  0
   -1.7710   13.4390   -6.4702 C   0  0  0  0  0  0  0  0  0  0  0  0
   -0.4354   13.4950   -6.4103 N   0  0  3  0  0  0  0  0  0  0  0  0
    0.1709   12.4112   -6.8070 N   0  0  0  0  0  0  0  0  0  0  0  0
   -0.8030   11.5943   -7.1763 C   0  0  0  0  0  0  0  0  0  0  0  0
    0.3771   14.6141   -5.9576 C   0  0  0  0  0  0  0  0  0  0  0  0
   -3.4422   12.5360  -11.3947 C   0  0  0  0  0  0  0  0  0  0  0  0
   -2.3230   13.6139  -11.4067 C   0  0  0  0  0  0  0  0  0  0  0  0
   -3.2958   14.6820  -11.9593 C   0  0  0  0  0  0  0  0  0  0  0  0
   -1.7380   13.9356  -10.1565 O   0  0  0  0  0  0  0  0  0  0  0  0
   -6.0005   12.2762   -9.9046 H   0  0  0  0  0  0  0  0  0  0  0  0
   -8.1812   10.1071  -13.8902 H   0  0  0  0  0  0  0  0  0  0  0  0
   -6.9530   12.2555  -14.0918 H   0  0  0  0  0  0  0  0  0  0  0  0
   -8.7459   10.5752  -11.5709 H   0  0  0  0  0  0  0  0  0  0  0  0
   -8.0288    9.5892   -7.2517 H   0  0  0  0  0  0  0  0  0  0  0  0
   -4.8882    8.7841   -8.4909 H   0  0  0  0  0  0  0  0  0  0  0  0
   -2.6627    9.7615   -8.0471 H   0  0  0  0  0  0  0  0  0  0  0  0
   -4.5238   13.2903   -6.4741 H   0  0  0  0  0  0  0  0  0  0  0  0
   -6.7487   12.3097   -6.9107 H   0  0  0  0  0  0  0  0  0  0  0  0
   -2.1527   14.2251   -7.1383 H   0  0  0  0  0  0  0  0  0  0  0  0
   -2.2003   13.5709   -5.4661 H   0  0  0  0  0  0  0  0  0  0  0  0
   -0.6435   10.6063   -7.5823 H   0  0  0  0  0  0  0  0  0  0  0  0
    1.4419   14.3470   -6.0280 H   0  0  0  0  0  0  0  0  0  0  0  0
    0.1769   15.4918   -6.5897 H   0  0  0  0  0  0  0  0  0  0  0  0
    0.1266   14.8499   -4.9128 H   0  0  0  0  0  0  0  0  0  0  0  0
   -3.6551   12.0930  -10.4106 H   0  0  0  0  0  0  0  0  0  0  0  0
   -3.3293   11.7354  -12.1405 H   0  0  0  0  0  0  0  0  0  0  0  0
   -1.5662   13.3629  -12.1645 H   0  0  0  0  0  0  0  0  0  0  0  0
   -3.1063   14.9918  -12.9976 H   0  0  0  0  0  0  0  0  0  0  0  0
   -3.4165   15.5738  -11.3267 H   0  0  0  0  0  0  0  0  0  0  0  0
   -1.0709   14.6005  -10.2803 H   0  0  0  0  0  0  0  0  0  0  0  0
  1  2  2  0  0  0  0
  1  4  1  0  0  0  0
  1 12  1  0  0  0  0
  2  6  1  0  0  0  0
  3  4  2  0  0  0  0
  3  5  1  0  0  0  0
  5  6  1  0  0  0  0
  5  9  1  0  0  0  0
  6  7  2  0  0  0  0
  7  8  1  0  0  0  0
  7 10  1  0  0  0  0
  8  9  2  0  0  0  0
 10 14  2  0  0  0  0
 11 12  1  0  0  0  0
 11 26  1  0  0  0  0
 11 28  1  0  0  0  0
 12 13  2  0  0  0  0
 14 15  1  0  0  0  0
 14 19  1  0  0  0  0
 15 16  2  0  0  0  0
 16 17  1  0  0  0  0
 17 18  1  0  0  0  0
 17 20  2  0  0  0  0
 18 19  2  0  0  0  0
 20 21  1  0  0  0  0
 20 24  1  0  0  0  0
 21 22  1  0  0  0  0
 22 23  1  0  0  0  0
 22 25  1  0  0  0  0
 23 24  2  0  0  0  0
 26 27  1  0  0  0  0
 27 28  1  0  0  0  0
 27 29  1  0  0  0  0
  2 30  1  0  0  0  0
  3 31  1  0  0  0  0
  4 32  1  0  0  0  0
  5 33  1  0  0  0  0
 10 34  1  0  0  0  0
 15 35  1  0  0  0  0
 16 36  1  0  0  0  0
 18 37  1  0  0  0  0
 19 38  1  0  0  0  0
 21 39  1  0  0  0  0
 21 40  1  0  0  0  0
 24 41  1  0  0  0  0
 25 42  1  0  0  0  0
 25 43  1  0  0  0  0
 25 44  1  0  0  0  0
 26 45  1  0  0  0  0
 26 46  1  0  0  0  0
 27 47  1  0  0  0  0
 28 48  1  0  0  0  0
 28 49  1  0  0  0  0
 29 50  1  0  0  0  0
M  END
> <Name>
35

> <IC50[uM]>
0.004

$$$$
35
  -OEChem-05192314333D
 Structure written by MMmdl.
 50 54  0     1  0  0  0  0  0999 V2000
   -6.3895   12.3678  -12.0373 C   0  0  0  0  0  0  0  0  0  0  0  0
   -6.4824   11.8098  -10.7511 C   0  0  0  0  0  0  0  0  0  0  0  0
   -7.7271   10.5745  -13.0290 C   0  0  0  0  0  0  0  0  0  0  0  0
   -7.0179   11.7711  -13.1287 C   0  0  0  0  0  0  0  0  0  0  0  0
   -7.8170   10.0145  -11.7522 C   0  0  0  0  0  0  0  0  0  0  0  0
   -7.2238   10.6236  -10.6024 C   0  0  0  0  0  0  0  0  0  0  0  0
   -7.6044    9.7508   -9.5065 C   0  0  0  0  0  0  0  0  0  0  0  0
   -8.2828    8.7443   -9.9813 N   0  0  0  0  0  0  0  0  0  0  0  0
   -8.4172    8.8704  -11.2949 N   0  0  0  0  0  0  0  0  0  0  0  0
   -7.3303    9.8854   -8.0203 C   0  0  0  0  0  0  0  0  0  0  0  0
   -4.3418   13.6528  -11.7950 N   0  0  0  0  0  0  0  0  0  0  0  0
   -5.6106   13.6402  -12.2589 C   0  0  0  0  0  0  0  0  0  0  0  0
   -6.1045   14.5768  -12.8828 O   0  0  0  0  0  0  0  0  0  0  0  0
   -5.9605   10.4846   -7.7337 C   0  0  0  0  0  0  0  0  0  0  0  0
   -4.8084    9.7674   -8.0514 C   0  0  0  0  0  0  0  0  0  0  0  0
   -3.5547   10.3189   -7.8020 C   0  0  0  0  0  0  0  0  0  0  0  0
   -3.4471   11.5931   -7.2348 C   0  0  0  0  0  0  0  0  0  0  0  0
   -4.6026   12.3073   -6.9145 C   0  0  0  0  0  0  0  0  0  0  0  0
   -5.8562   11.7556   -7.1614 C   0  0  0  0  0  0  0  0  0  0  0  0
   -2.1021   12.1835   -6.9708 C   0  0  0  0  0  0  0  0  0  0  0  0
   -1.7710   13.4390   -6.4702 C   0  0  0  0  0  0  0  0  0  0  0  0
   -0.4354   13.4950   -6.4103 N   0  0  3  0  0  0  0  0  0  0  0  0
    0.1709   12.4112   -6.8070 N   0  0  0  0  0  0  0  0  0  0  0  0
   -0.8030   11.5943   -7.1763 C   0  0  0  0  0  0  0  0  0  0  0  0
    0.3771   14.6141   -5.9576 C   0  0  0  0  0  0  0  0  0  0  0  0
   -3.4422   12.5360  -11.3947 C   0  0  0  0  0  0  0  0  0  0  0  0
   -2.3230   13.6139  -11.4067 C   0  0  0  0  0  0  0  0  0  0  0  0
   -3.2958   14.6820  -11.9593 C   0  0  0  0  0  0  0  0  0  0  0  0
   -1.7380   13.9356  -10.1565 O   0  0  0  0  0  0  0  0  0  0  0  0
   -6.0005   12.2762   -9.9046 H   0  0  0  0  0  0  0  0  0  0  0  0
   -8.1812   10.1071  -13.8902 H   0  0  0  0  0  0  0  0  0  0  0  0
   -7.7299   12.5156  -13.5144 H   0  0  0  0  0  0  0  0  0  0  0  0
   -6.2295   11.5963  -13.8757 H   0  0  0  0  0  0  0  0  0  0  0  0
   -8.0288    9.5892   -7.2517 H   0  0  0  0  0  0  0  0  0  0  0  0
   -4.8882    8.7841   -8.4909 H   0  0  0  0  0  0  0  0  0  0  0  0
   -2.6627    9.7615   -8.0471 H   0  0  0  0  0  0  0  0  0  0  0  0
   -4.5238   13.2903   -6.4741 H   0  0  0  0  0  0  0  0  0  0  0  0
   -6.7487   12.3097   -6.9107 H   0  0  0  0  0  0  0  0  0  0  0  0
   -2.1527   14.2251   -7.1383 H   0  0  0  0  0  0  0  0  0  0  0  0
   -2.2003   13.5709   -5.4661 H   0  0  0  0  0  0  0  0  0  0  0  0
   -0.6435   10.6063   -7.5823 H   0  0  0  0  0  0  0  0  0  0  0  0
    1.4419   14.3470   -6.0280 H   0  0  0  0  0  0  0  0  0  0  0  0
    0.1769   15.4918   -6.5897 H   0  0  0  0  0  0  0  0  0  0  0  0
    0.1266   14.8499   -4.9128 H   0  0  0  0  0  0  0  0  0  0  0  0
   -3.6551   12.0930  -10.4106 H   0  0  0  0  0  0  0  0  0  0  0  0
   -3.3293   11.7354  -12.1405 H   0  0  0  0  0  0  0  0  0  0  0  0
   -1.5662   13.3629  -12.1645 H   0  0  0  0  0  0  0  0  0  0  0  0
   -3.1063   14.9918  -12.9976 H   0  0  0  0  0  0  0  0  0  0  0  0
   -3.4165   15.5738  -11.3267 H   0  0  0  0  0  0  0  0  0  0  0  0
   -1.0709   14.6005  -10.2803 H   0  0  0  0  0  0  0  0  0  0  0  0
  1  2  2  0  0  0  0
  1  4  1  0  0  0  0
  1 12  1  0  0  0  0
  2  6  1  0  0  0  0
  3  4  1  0  0  0  0
  3  5  2  0  0  0  0
  5  6  1  0  0  0  0
  5  9  1  0  0  0  0
  6  7  2  0  0  0  0
  7  8  1  0  0  0  0
  7 10  1  0  0  0  0
  8  9  2  0  0  0  0
 10 14  2  0  0  0  0
 11 12  1  0  0  0  0
 11 26  1  0  0  0  0
 11 28  1  0  0  0  0
 12 13  2  0  0  0  0
 14 15  1  0  0  0  0
 14 19  1  0  0  0  0
 15 16  2  0  0  0  0
 16 17  1  0  0  0  0
 17 18  1  0  0  0  0
 17 20  2  0  0  0  0
 18 19  2  0  0  0  0
 20 21  1  0  0  0  0
 20 24  1  0  0  0  0
 21 22  1  0  0  0  0
 22 23  1  0  0  0  0
 22 25  1  0  0  0  0
 23 24  2  0  0  0  0
 26 27  1  0  0  0  0
 27 28  1  0  0  0  0
 27 29  1  0  0  0  0
  2 30  1  0  0  0  0
  3 31  1  0  0  0  0
  4 32  1  0  0  0  0
  4 33  1  0  0  0  0
 10 34  1  0  0  0  0
 15 35  1  0  0  0  0
 16 36  1  0  0  0  0
 18 37  1  0  0  0  0
 19 38  1  0  0  0  0
 21 39  1  0  0  0  0
 21 40  1  0  0  0  0
 24 41  1  0  0  0  0
 25 42  1  0  0  0  0
 25 43  1  0  0  0  0
 25 44  1  0  0  0  0
 26 45  1  0  0  0  0
 26 46  1  0  0  0  0
 27 47  1  0  0  0  0
 28 48  1  0  0  0  0
 28 49  1  0  0  0  0
 29 50  1  0  0  0  0
M  END
> <Name>
35

> <IC50[uM]>
0.004

$$$$
35
  -OEChem-05192314333D
 Structure written by MMmdl.
 50 54  0     1  0  0  0  0  0999 V2000
   -6.3895   12.3678  -12.0373 C   0  0  0  0  0  0  0  0  0  0  0  0
   -6.4824   11.8098  -10.7511 C   0  0  0  0  0  0  0  0  0  0  0  0
   -7.7271   10.5745  -13.0290 C   0  0  0  0  0  0  0  0  0  0  0  0
   -7.0179   11.7711  -13.1287 C   0  0  0  0  0  0  0  0  0  0  0  0
   -7.8170   10.0145  -11.7522 C   0  0  0  0  0  0  0  0  0  0  0  0
   -7.2238   10.6236  -10.6024 C   0  0  0  0  0  0  0  0  0  0  0  0
   -7.6044    9.7508   -9.5065 C   0  0  0  0  0  0  0  0  0  0  0  0
   -8.2828    8.7443   -9.9813 N   0  0  0  0  0  0  0  0  0  0  0  0
   -8.4172    8.8704  -11.2949 N   0  0  0  0  0  0  0  0  0  0  0  0
   -7.3303    9.8854   -8.0203 C   0  0  0  0  0  0  0  0  0  0  0  0
   -4.3418   13.6528  -11.7950 N   0  0  0  0  0  0  0  0  0  0  0  0
   -5.6106   13.6402  -12.2589 C   0  0  0  0  0  0  0  0  0  0  0  0
   -6.1045   14.5768  -12.8828 O   0  0  0  0  0  0  0  0  0  0  0  0
   -5.9605   10.4846   -7.7337 C   0  0  0  0  0  0  0  0  0  0  0  0
   -4.8084    9.7674   -8.0514 C   0  0  0  0  0  0  0  0  0  0  0  0
   -3.5547   10.3189   -7.8020 C   0  0  0  0  0  0  0  0  0  0  0  0
   -3.4471   11.5931   -7.2348 C   0  0  0  0  0  0  0  0  0  0  0  0
   -4.6026   12.3073   -6.9145 C   0  0  0  0  0  0  0  0  0  0  0  0
   -5.8562   11.7556   -7.1614 C   0  0  0  0  0  0  0  0  0  0  0  0
   -2.1021   12.1835   -6.9708 C   0  0  0  0  0  0  0  0  0  0  0  0
   -1.7710   13.4390   -6.4702 C   0  0  0  0  0  0  0  0  0  0  0  0
   -0.4354   13.4950   -6.4103 N   0  0  3  0  0  0  0  0  0  0  0  0
    0.1709   12.4112   -6.8070 N   0  0  0  0  0  0  0  0  0  0  0  0
   -0.8030   11.5943   -7.1763 C   0  0  0  0  0  0  0  0  0  0  0  0
    0.3771   14.6141   -5.9576 C   0  0  0  0  0  0  0  0  0  0  0  0
   -3.4422   12.5360  -11.3947 C   0  0  0  0  0  0  0  0  0  0  0  0
   -2.3230   13.6139  -11.4067 C   0  0  0  0  0  0  0  0  0  0  0  0
   -3.2958   14.6820  -11.9593 C   0  0  0  0  0  0  0  0  0  0  0  0
   -1.7380   13.9356  -10.1565 O   0  0  0  0  0  0  0  0  0  0  0  0
   -5.4579   11.6013  -10.4092 H   0  0  0  0  0  0  0  0  0  0  0  0
   -6.9402   12.5668  -10.0974 H   0  0  0  0  0  0  0  0  0  0  0  0
   -8.1812   10.1071  -13.8902 H   0  0  0  0  0  0  0  0  0  0  0  0
   -6.9530   12.2555  -14.0918 H   0  0  0  0  0  0  0  0  0  0  0  0
   -8.0288    9.5892   -7.2517 H   0  0  0  0  0  0  0  0  0  0  0  0
   -4.8882    8.7841   -8.4909 H   0  0  0  0  0  0  0  0  0  0  0  0
   -2.6627    9.7615   -8.0471 H   0  0  0  0  0  0  0  0  0  0  0  0
   -4.5238   13.2903   -6.4741 H   0  0  0  0  0  0  0  0  0  0  0  0
   -6.7487   12.3097   -6.9107 H   0  0  0  0  0  0  0  0  0  0  0  0
   -2.1527   14.2251   -7.1383 H   0  0  0  0  0  0  0  0  0  0  0  0
   -2.2003   13.5709   -5.4661 H   0  0  0  0  0  0  0  0  0  0  0  0
   -0.6435   10.6063   -7.5823 H   0  0  0  0  0  0  0  0  0  0  0  0
    1.4419   14.3470   -6.0280 H   0  0  0  0  0  0  0  0  0  0  0  0
    0.1769   15.4918   -6.5897 H   0  0  0  0  0  0  0  0  0  0  0  0
    0.1266   14.8499   -4.9128 H   0  0  0  0  0  0  0  0  0  0  0  0
   -3.6551   12.0930  -10.4106 H   0  0  0  0  0  0  0  0  0  0  0  0
   -3.3293   11.7354  -12.1405 H   0  0  0  0  0  0  0  0  0  0  0  0
   -1.5662   13.3629  -12.1645 H   0  0  0  0  0  0  0  0  0  0  0  0
   -3.1063   14.9918  -12.9976 H   0  0  0  0  0  0  0  0  0  0  0  0
   -3.4165   15.5738  -11.3267 H   0  0  0  0  0  0  0  0  0  0  0  0
   -1.0709   14.6005  -10.2803 H   0  0  0  0  0  0  0  0  0  0  0  0
  1  2  1  0  0  0  0
  1  4  2  0  0  0  0
  1 12  1  0  0  0  0
  2  6  1  0  0  0  0
  3  4  1  0  0  0  0
  3  5  2  0  0  0  0
  5  6  1  0  0  0  0
  5  9  1  0  0  0  0
  6  7  2  0  0  0  0
  7  8  1  0  0  0  0
  7 10  1  0  0  0  0
  8  9  2  0  0  0  0
 10 14  2  0  0  0  0
 11 12  1  0  0  0  0
 11 26  1  0  0  0  0
 11 28  1  0  0  0  0
 12 13  2  0  0  0  0
 14 15  1  0  0  0  0
 14 19  1  0  0  0  0
 15 16  2  0  0  0  0
 16 17  1  0  0  0  0
 17 18  1  0  0  0  0
 17 20  2  0  0  0  0
 18 19  2  0  0  0  0
 20 21  1  0  0  0  0
 20 24  1  0  0  0  0
 21 22  1  0  0  0  0
 22 23  1  0  0  0  0
 22 25  1  0  0  0  0
 23 24  2  0  0  0  0
 26 27  1  0  0  0  0
 27 28  1  0  0  0  0
 27 29  1  0  0  0  0
  2 30  1  0  0  0  0
  2 31  1  0  0  0  0
  3 32  1  0  0  0  0
  4 33  1  0  0  0  0
 10 34  1  0  0  0  0
 15 35  1  0  0  0  0
 16 36  1  0  0  0  0
 18 37  1  0  0  0  0
 19 38  1  0  0  0  0
 21 39  1  0  0  0  0
 21 40  1  0  0  0  0
 24 41  1  0  0  0  0
 25 42  1  0  0  0  0
 25 43  1  0  0  0  0
 25 44  1  0  0  0  0
 26 45  1  0  0  0  0
 26 46  1  0  0  0  0
 27 47  1  0  0  0  0
 28 48  1  0  0  0  0
 28 49  1  0  0  0  0
 29 50  1  0  0  0  0
M  END
> <Name>
35

> <IC50[uM]>
0.004

$$$$
35
  -OEChem-05192314333D
 Structure written by MMmdl.
 50 54  0     1  0  0  0  0  0999 V2000
   -6.3895   12.3678  -12.0373 C   0  0  3  0  0  0  0  0  0  0  0  0
   -6.4824   11.8098  -10.7511 C   0  0  0  0  0  0  0  0  0  0  0  0
   -7.7271   10.5745  -13.0290 C   0  0  0  0  0  0  0  0  0  0  0  0
   -7.0179   11.7711  -13.1287 C   0  0  0  0  0  0  0  0  0  0  0  0
   -7.8170   10.0145  -11.7522 C   0  0  0  0  0  0  0  0  0  0  0  0
   -7.2238   10.6236  -10.6024 C   0  0  0  0  0  0  0  0  0  0  0  0
   -7.6044    9.7508   -9.5065 C   0  0  0  0  0  0  0  0  0  0  0  0
   -8.2828    8.7443   -9.9813 N   0  0  0  0  0  0  0  0  0  0  0  0
   -8.4172    8.8704  -11.2949 N   0  0  0  0  0  0  0  0  0  0  0  0
   -7.3303    9.8854   -8.0203 C   0  0  0  0  0  0  0  0  0  0  0  0
   -4.3418   13.6528  -11.7950 N   0  0  0  0  0  0  0  0  0  0  0  0
   -5.6106   13.6402  -12.2589 C   0  0  0  0  0  0  0  0  0  0  0  0
   -6.1045   14.5768  -12.8828 O   0  0  0  0  0  0  0  0  0  0  0  0
   -5.9605   10.4846   -7.7337 C   0  0  0  0  0  0  0  0  0  0  0  0
   -4.8084    9.7674   -8.0514 C   0  0  0  0  0  0  0  0  0  0  0  0
   -3.5547   10.3189   -7.8020 C   0  0  0  0  0  0  0  0  0  0  0  0
   -3.4471   11.5931   -7.2348 C   0  0  0  0  0  0  0  0  0  0  0  0
   -4.6026   12.3073   -6.9145 C   0  0  0  0  0  0  0  0  0  0  0  0
   -5.8562   11.7556   -7.1614 C   0  0  0  0  0  0  0  0  0  0  0  0
   -2.1021   12.1835   -6.9708 C   0  0  0  0  0  0  0  0  0  0  0  0
   -1.7710   13.4390   -6.4702 C   0  0  0  0  0  0  0  0  0  0  0  0
   -0.4354   13.4950   -6.4103 N   0  0  0  0  0  0  0  0  0  0  0  0
    0.1709   12.4112   -6.8070 N   0  0  0  0  0  0  0  0  0  0  0  0
   -0.8030   11.5943   -7.1763 C   0  0  0  0  0  0  0  0  0  0  0  0
    0.3771   14.6141   -5.9576 C   0  0  0  0  0  0  0  0  0  0  0  0
   -3.4422   12.5360  -11.3947 C   0  0  0  0  0  0  0  0  0  0  0  0
   -2.3230   13.6139  -11.4067 C   0  0  0  0  0  0  0  0  0  0  0  0
   -3.2958   14.6820  -11.9593 C   0  0  0  0  0  0  0  0  0  0  0  0
   -1.7380   13.9356  -10.1565 O   0  0  0  0  0  0  0  0  0  0  0  0
   -5.4830   11.7758  -12.2318 H   0  0  0  0  0  0  0  0  0  0  0  0
   -6.0005   12.2762   -9.9046 H   0  0  0  0  0  0  0  0  0  0  0  0
   -8.1812   10.1071  -13.8902 H   0  0  0  0  0  0  0  0  0  0  0  0
   -6.9530   12.2555  -14.0918 H   0  0  0  0  0  0  0  0  0  0  0  0
   -8.0288    9.5892   -7.2517 H   0  0  0  0  0  0  0  0  0  0  0  0
   -4.8882    8.7841   -8.4909 H   0  0  0  0  0  0  0  0  0  0  0  0
   -2.6627    9.7615   -8.0471 H   0  0  0  0  0  0  0  0  0  0  0  0
   -3.4475   12.0413   -8.2394 H   0  0  0  0  0  0  0  0  0  0  0  0
   -4.5238   13.2903   -6.4741 H   0  0  0  0  0  0  0  0  0  0  0  0
   -6.7487   12.3097   -6.9107 H   0  0  0  0  0  0  0  0  0  0  0  0
   -2.4606   14.2195   -6.1845 H   0  0  0  0  0  0  0  0  0  0  0  0
   -0.6435   10.6063   -7.5823 H   0  0  0  0  0  0  0  0  0  0  0  0
    1.4419   14.3470   -6.0280 H   0  0  0  0  0  0  0  0  0  0  0  0
    0.1769   15.4918   -6.5897 H   0  0  0  0  0  0  0  0  0  0  0  0
    0.1266   14.8499   -4.9128 H   0  0  0  0  0  0  0  0  0  0  0  0
   -3.6551   12.0930  -10.4106 H   0  0  0  0  0  0  0  0  0  0  0  0
   -3.3293   11.7354  -12.1405 H   0  0  0  0  0  0  0  0  0  0  0  0
   -1.5662   13.3629  -12.1645 H   0  0  0  0  0  0  0  0  0  0  0  0
   -3.1063   14.9918  -12.9976 H   0  0  0  0  0  0  0  0  0  0  0  0
   -3.4165   15.5738  -11.3267 H   0  0  0  0  0  0  0  0  0  0  0  0
   -1.0709   14.6005  -10.2803 H   0  0  0  0  0  0  0  0  0  0  0  0
  1  2  1  0  0  0  0
  1  4  1  0  0  0  0
  1 12  1  0  0  0  0
  2  6  2  0  0  0  0
  3  4  2  0  0  0  0
  3  5  1  0  0  0  0
  5  6  1  0  0  0  0
  5  9  2  0  0  0  0
  6  7  1  0  0  0  0
  7  8  2  0  0  0  0
  7 10  1  0  0  0  0
  8  9  1  0  0  0  0
 10 14  2  0  0  0  0
 11 12  1  0  0  0  0
 11 26  1  0  0  0  0
 11 28  1  0  0  0  0
 12 13  2  0  0  0  0
 14 15  1  0  0  0  0
 14 19  1  0  0  0  0
 15 16  2  0  0  0  0
 16 17  1  0  0  0  0
 17 18  1  0  0  0  0
 17 20  1  0  0  0  0
 18 19  2  0  0  0  0
 20 21  2  0  0  0  0
 20 24  1  0  0  0  0
 21 22  1  0  0  0  0
 22 23  1  0  0  0  0
 22 25  1  0  0  0  0
 23 24  2  0  0  0  0
 26 27  1  0  0  0  0
 27 28  1  0  0  0  0
 27 29  1  0  0  0  0
  1 30  1  0  0  0  0
  2 31  1  0  0  0  0
  3 32  1  0  0  0  0
  4 33  1  0  0  0  0
 10 34  1  0  0  0  0
 15 35  1  0  0  0  0
 16 36  1  0  0  0  0
 17 37  1  0  0  0  0
 18 38  1  0  0  0  0
 19 39  1  0  0  0  0
 21 40  1  0  0  0  0
 24 41  1  0  0  0  0
 25 42  1  0  0  0  0
 25 43  1  0  0  0  0
 25 44  1  0  0  0  0
 26 45  1  0  0  0  0
 26 46  1  0  0  0  0
 27 47  1  0  0  0  0
 28 48  1  0  0  0  0
 28 49  1  0  0  0  0
 29 50  1  0  0  0  0
M  END
> <Name>
35

> <IC50[uM]>
0.004

$$$$
35
  -OEChem-05192314333D
 Structure written by MMmdl.
 50 54  0     1  0  0  0  0  0999 V2000
   -6.3895   12.3678  -12.0373 C   0  0  0  0  0  0  0  0  0  0  0  0
   -6.4824   11.8098  -10.7511 C   0  0  0  0  0  0  0  0  0  0  0  0
   -7.7271   10.5745  -13.0290 C   0  0  0  0  0  0  0  0  0  0  0  0
   -7.0179   11.7711  -13.1287 C   0  0  0  0  0  0  0  0  0  0  0  0
   -7.8170   10.0145  -11.7522 C   0  0  0  0  0  0  0  0  0  0  0  0
   -7.2238   10.6236  -10.6024 C   0  0  3  0  0  0  0  0  0  0  0  0
   -7.6044    9.7508   -9.5065 C   0  0  0  0  0  0  0  0  0  0  0  0
   -8.2828    8.7443   -9.9813 N   0  0  0  0  0  0  0  0  0  0  0  0
   -8.4172    8.8704  -11.2949 N   0  0  0  0  0  0  0  0  0  0  0  0
   -7.3303    9.8854   -8.0203 C   0  0  0  0  0  0  0  0  0  0  0  0
   -4.3418   13.6528  -11.7950 N   0  0  0  0  0  0  0  0  0  0  0  0
   -5.6106   13.6402  -12.2589 C   0  0  0  0  0  0  0  0  0  0  0  0
   -6.1045   14.5768  -12.8828 O   0  0  0  0  0  0  0  0  0  0  0  0
   -5.9605   10.4846   -7.7337 C   0  0  0  0  0  0  0  0  0  0  0  0
   -4.8084    9.7674   -8.0514 C   0  0  0  0  0  0  0  0  0  0  0  0
   -3.5547   10.3189   -7.8020 C   0  0  0  0  0  0  0  0  0  0  0  0
   -3.4471   11.5931   -7.2348 C   0  0  0  0  0  0  0  0  0  0  0  0
   -4.6026   12.3073   -6.9145 C   0  0  0  0  0  0  0  0  0  0  0  0
   -5.8562   11.7556   -7.1614 C   0  0  0  0  0  0  0  0  0  0  0  0
   -2.1021   12.1835   -6.9708 C   0  0  0  0  0  0  0  0  0  0  0  0
   -1.7710   13.4390   -6.4702 C   0  0  0  0  0  0  0  0  0  0  0  0
   -0.4354   13.4950   -6.4103 N   0  0  0  0  0  0  0  0  0  0  0  0
    0.1709   12.4112   -6.8070 N   0  0  0  0  0  0  0  0  0  0  0  0
   -0.8030   11.5943   -7.1763 C   0  0  0  0  0  0  0  0  0  0  0  0
    0.3771   14.6141   -5.9576 C   0  0  0  0  0  0  0  0  0  0  0  0
   -3.4422   12.5360  -11.3947 C   0  0  0  0  0  0  0  0  0  0  0  0
   -2.3230   13.6139  -11.4067 C   0  0  0  0  0  0  0  0  0  0  0  0
   -3.2958   14.6820  -11.9593 C   0  0  0  0  0  0  0  0  0  0  0  0
   -1.7380   13.9356  -10.1565 O   0  0  0  0  0  0  0  0  0  0  0  0
   -6.0005   12.2762   -9.9046 H   0  0  0  0  0  0  0  0  0  0  0  0
   -8.1812   10.1071  -13.8902 H   0  0  0  0  0  0  0  0  0  0  0  0
   -6.9530   12.2555  -14.0918 H   0  0  0  0  0  0  0  0  0  0  0  0
   -6.3101   10.0314  -10.7584 H   0  0  0  0  0  0  0  0  0  0  0  0
   -8.0288    9.5892   -7.2517 H   0  0  0  0  0  0  0  0  0  0  0  0
   -4.8882    8.7841   -8.4909 H   0  0  0  0  0  0  0  0  0  0  0  0
   -2.6627    9.7615   -8.0471 H   0  0  0  0  0  0  0  0  0  0  0  0
   -3.4475   12.0413   -8.2394 H   0  0  0  0  0  0  0  0  0  0  0  0
   -4.5238   13.2903   -6.4741 H   0  0  0  0  0  0  0  0  0  0  0  0
   -6.7487   12.3097   -6.9107 H   0  0  0  0  0  0  0  0  0  0  0  0
   -2.4606   14.2195   -6.1845 H   0  0  0  0  0  0  0  0  0  0  0  0
   -0.6435   10.6063   -7.5823 H   0  0  0  0  0  0  0  0  0  0  0  0
    1.4419   14.3470   -6.0280 H   0  0  0  0  0  0  0  0  0  0  0  0
    0.1769   15.4918   -6.5897 H   0  0  0  0  0  0  0  0  0  0  0  0
    0.1266   14.8499   -4.9128 H   0  0  0  0  0  0  0  0  0  0  0  0
   -3.6551   12.0930  -10.4106 H   0  0  0  0  0  0  0  0  0  0  0  0
   -3.3293   11.7354  -12.1405 H   0  0  0  0  0  0  0  0  0  0  0  0
   -1.5662   13.3629  -12.1645 H   0  0  0  0  0  0  0  0  0  0  0  0
   -3.1063   14.9918  -12.9976 H   0  0  0  0  0  0  0  0  0  0  0  0
   -3.4165   15.5738  -11.3267 H   0  0  0  0  0  0  0  0  0  0  0  0
   -1.0709   14.6005  -10.2803 H   0  0  0  0  0  0  0  0  0  0  0  0
  1  2  2  0  0  0  0
  1  4  1  0  0  0  0
  1 12  1  0  0  0  0
  2  6  1  0  0  0  0
  3  4  2  0  0  0  0
  3  5  1  0  0  0  0
  5  6  1  0  0  0  0
  5  9  2  0  0  0  0
  6  7  1  0  0  0  0
  7  8  2  0  0  0  0
  7 10  1  0  0  0  0
  8  9  1  0  0  0  0
 10 14  2  0  0  0  0
 11 12  1  0  0  0  0
 11 26  1  0  0  0  0
 11 28  1  0  0  0  0
 12 13  2  0  0  0  0
 14 15  1  0  0  0  0
 14 19  1  0  0  0  0
 15 16  2  0  0  0  0
 16 17  1  0  0  0  0
 17 18  1  0  0  0  0
 17 20  1  0  0  0  0
 18 19  2  0  0  0  0
 20 21  2  0  0  0  0
 20 24  1  0  0  0  0
 21 22  1  0  0  0  0
 22 23  1  0  0  0  0
 22 25  1  0  0  0  0
 23 24  2  0  0  0  0
 26 27  1  0  0  0  0
 27 28  1  0  0  0  0
 27 29  1  0  0  0  0
  2 30  1  0  0  0  0
  3 31  1  0  0  0  0
  4 32  1  0  0  0  0
  6 33  1  0  0  0  0
 10 34  1  0  0  0  0
 15 35  1  0  0  0  0
 16 36  1  0  0  0  0
 17 37  1  0  0  0  0
 18 38  1  0  0  0  0
 19 39  1  0  0  0  0
 21 40  1  0  0  0  0
 24 41  1  0  0  0  0
 25 42  1  0  0  0  0
 25 43  1  0  0  0  0
 25 44  1  0  0  0  0
 26 45  1  0  0  0  0
 26 46  1  0  0  0  0
 27 47  1  0  0  0  0
 28 48  1  0  0  0  0
 28 49  1  0  0  0  0
 29 50  1  0  0  0  0
M  END
> <Name>
35

> <IC50[uM]>
0.004

$$$$
35
  -OEChem-05192314333D
 Structure written by MMmdl.
 50 54  0     0  0  0  0  0  0999 V2000
   -6.3895   12.3678  -12.0373 C   0  0  0  0  0  0  0  0  0  0  0  0
   -6.4824   11.8098  -10.7511 C   0  0  0  0  0  0  0  0  0  0  0  0
   -7.7271   10.5745  -13.0290 C   0  0  0  0  0  0  0  0  0  0  0  0
   -7.0179   11.7711  -13.1287 C   0  0  0  0  0  0  0  0  0  0  0  0
   -7.8170   10.0145  -11.7522 C   0  0  0  0  0  0  0  0  0  0  0  0
   -7.2238   10.6236  -10.6024 C   0  0  0  0  0  0  0  0  0  0  0  0
   -7.6044    9.7508   -9.5065 C   0  0  0  0  0  0  0  0  0  0  0  0
   -8.2828    8.7443   -9.9813 N   0  0  0  0  0  0  0  0  0  0  0  0
   -8.4172    8.8704  -11.2949 N   0  0  0  0  0  0  0  0  0  0  0  0
   -7.3303    9.8854   -8.0203 C   0  0  0  0  0  0  0  0  0  0  0  0
   -4.3418   13.6528  -11.7950 N   0  0  0  0  0  0  0  0  0  0  0  0
   -5.6106   13.6402  -12.2589 C   0  0  0  0  0  0  0  0  0  0  0  0
   -6.1045   14.5768  -12.8828 O   0  0  0  0  0  0  0  0  0  0  0  0
   -5.9605   10.4846   -7.7337 C   0  0  0  0  0  0  0  0  0  0  0  0
   -4.8084    9.7674   -8.0514 C   0  0  0  0  0  0  0  0  0  0  0  0
   -3.5547   10.3189   -7.8020 C   0  0  0  0  0  0  0  0  0  0  0  0
   -3.4471   11.5931   -7.2348 C   0  0  0  0  0  0  0  0  0  0  0  0
   -4.6026   12.3073   -6.9145 C   0  0  0  0  0  0  0  0  0  0  0  0
   -5.8562   11.7556   -7.1614 C   0  0  0  0  0  0  0  0  0  0  0  0
   -2.1021   12.1835   -6.9708 C   0  0  0  0  0  0  0  0  0  0  0  0
   -1.7710   13.4390   -6.4702 C   0  0  0  0  0  0  0  0  0  0  0  0
   -0.4354   13.4950   -6.4103 N   0  0  0  0  0  0  0  0  0  0  0  0
    0.1709   12.4112   -6.8070 N   0  0  0  0  0  0  0  0  0  0  0  0
   -0.8030   11.5943   -7.1763 C   0  0  0  0  0  0  0  0  0  0  0  0
    0.3771   14.6141   -5.9576 C   0  0  0  0  0  0  0  0  0  0  0  0
   -3.4422   12.5360  -11.3947 C   0  0  0  0  0  0  0  0  0  0  0  0
   -2.3230   13.6139  -11.4067 C   0  0  0  0  0  0  0  0  0  0  0  0
   -3.2958   14.6820  -11.9593 C   0  0  0  0  0  0  0  0  0  0  0  0
   -1.7380   13.9356  -10.1565 O   0  0  0  0  0  0  0  0  0  0  0  0
   -6.0005   12.2762   -9.9046 H   0  0  0  0  0  0  0  0  0  0  0  0
   -8.7506   10.7604  -13.3866 H   0  0  0  0  0  0  0  0  0  0  0  0
   -7.2377    9.8389  -13.6842 H   0  0  0  0  0  0  0  0  0  0  0  0
   -6.9530   12.2555  -14.0918 H   0  0  0  0  0  0  0  0  0  0  0  0
   -8.0288    9.5892   -7.2517 H   0  0  0  0  0  0  0  0  0  0  0  0
   -4.8882    8.7841   -8.4909 H   0  0  0  0  0  0  0  0  0  0  0  0
   -2.6627    9.7615   -8.0471 H   0  0  0  0  0  0  0  0  0  0  0  0
   -3.4475   12.0413   -8.2394 H   0  0  0  0  0  0  0  0  0  0  0  0
   -4.5238   13.2903   -6.4741 H   0  0  0  0  0  0  0  0  0  0  0  0
   -6.7487   12.3097   -6.9107 H   0  0  0  0  0  0  0  0  0  0  0  0
   -2.4606   14.2195   -6.1845 H   0  0  0  0  0  0  0  0  0  0  0  0
   -0.6435   10.6063   -7.5823 H   0  0  0  0  0  0  0  0  0  0  0  0
    1.4419   14.3470   -6.0280 H   0  0  0  0  0  0  0  0  0  0  0  0
    0.1769   15.4918   -6.5897 H   0  0  0  0  0  0  0  0  0  0  0  0
    0.1266   14.8499   -4.9128 H   0  0  0  0  0  0  0  0  0  0  0  0
   -3.6551   12.0930  -10.4106 H   0  0  0  0  0  0  0  0  0  0  0  0
   -3.3293   11.7354  -12.1405 H   0  0  0  0  0  0  0  0  0  0  0  0
   -1.5662   13.3629  -12.1645 H   0  0  0  0  0  0  0  0  0  0  0  0
   -3.1063   14.9918  -12.9976 H   0  0  0  0  0  0  0  0  0  0  0  0
   -3.4165   15.5738  -11.3267 H   0  0  0  0  0  0  0  0  0  0  0  0
   -1.0709   14.6005  -10.2803 H   0  0  0  0  0  0  0  0  0  0  0  0
  1  2  1  0  0  0  0
  1  4  2  0  0  0  0
  1 12  1  0  0  0  0
  2  6  2  0  0  0  0
  3  4  1  0  0  0  0
  3  5  1  0  0  0  0
  5  6  1  0  0  0  0
  5  9  2  0  0  0  0
  6  7  1  0  0  0  0
  7  8  2  0  0  0  0
  7 10  1  0  0  0  0
  8  9  1  0  0  0  0
 10 14  2  0  0  0  0
 11 12  1  0  0  0  0
 11 26  1  0  0  0  0
 11 28  1  0  0  0  0
 12 13  2  0  0  0  0
 14 15  1  0  0  0  0
 14 19  1  0  0  0  0
 15 16  2  0  0  0  0
 16 17  1  0  0  0  0
 17 18  1  0  0  0  0
 17 20  1  0  0  0  0
 18 19  2  0  0  0  0
 20 21  2  0  0  0  0
 20 24  1  0  0  0  0
 21 22  1  0  0  0  0
 22 23  1  0  0  0  0
 22 25  1  0  0  0  0
 23 24  2  0  0  0  0
 26 27  1  0  0  0  0
 27 28  1  0  0  0  0
 27 29  1  0  0  0  0
  2 30  1  0  0  0  0
  3 31  1  0  0  0  0
  3 32  1  0  0  0  0
  4 33  1  0  0  0  0
 10 34  1  0  0  0  0
 15 35  1  0  0  0  0
 16 36  1  0  0  0  0
 17 37  1  0  0  0  0
 18 38  1  0  0  0  0
 19 39  1  0  0  0  0
 21 40  1  0  0  0  0
 24 41  1  0  0  0  0
 25 42  1  0  0  0  0
 25 43  1  0  0  0  0
 25 44  1  0  0  0  0
 26 45  1  0  0  0  0
 26 46  1  0  0  0  0
 27 47  1  0  0  0  0
 28 48  1  0  0  0  0
 28 49  1  0  0  0  0
 29 50  1  0  0  0  0
M  END
> <Name>
35

> <IC50[uM]>
0.004

$$$$
35
  -OEChem-05192314333D
 Structure written by MMmdl.
 50 54  0     1  0  0  0  0  0999 V2000
   -6.3895   12.3678  -12.0373 C   0  0  3  0  0  0  0  0  0  0  0  0
   -6.4824   11.8098  -10.7511 C   0  0  0  0  0  0  0  0  0  0  0  0
   -7.7271   10.5745  -13.0290 C   0  0  0  0  0  0  0  0  0  0  0  0
   -7.0179   11.7711  -13.1287 C   0  0  0  0  0  0  0  0  0  0  0  0
   -7.8170   10.0145  -11.7522 C   0  0  0  0  0  0  0  0  0  0  0  0
   -7.2238   10.6236  -10.6024 C   0  0  0  0  0  0  0  0  0  0  0  0
   -7.6044    9.7508   -9.5065 C   0  0  0  0  0  0  0  0  0  0  0  0
   -8.2828    8.7443   -9.9813 N   0  0  0  0  0  0  0  0  0  0  0  0
   -8.4172    8.8704  -11.2949 N   0  0  0  0  0  0  0  0  0  0  0  0
   -7.3303    9.8854   -8.0203 C   0  0  0  0  0  0  0  0  0  0  0  0
   -4.3418   13.6528  -11.7950 N   0  0  0  0  0  0  0  0  0  0  0  0
   -5.6106   13.6402  -12.2589 C   0  0  0  0  0  0  0  0  0  0  0  0
   -6.1045   14.5768  -12.8828 O   0  0  0  0  0  0  0  0  0  0  0  0
   -5.9605   10.4846   -7.7337 C   0  0  0  0  0  0  0  0  0  0  0  0
   -4.8084    9.7674   -8.0514 C   0  0  0  0  0  0  0  0  0  0  0  0
   -3.5547   10.3189   -7.8020 C   0  0  0  0  0  0  0  0  0  0  0  0
   -3.4471   11.5931   -7.2348 C   0  0  0  0  0  0  0  0  0  0  0  0
   -4.6026   12.3073   -6.9145 C   0  0  0  0  0  0  0  0  0  0  0  0
   -5.8562   11.7556   -7.1614 C   0  0  0  0  0  0  0  0  0  0  0  0
   -2.1021   12.1835   -6.9708 C   0  0  0  0  0  0  0  0  0  0  0  0
   -1.7710   13.4390   -6.4702 C   0  0  0  0  0  0  0  0  0  0  0  0
   -0.4354   13.4950   -6.4103 N   0  0  0  0  0  0  0  0  0  0  0  0
    0.1709   12.4112   -6.8070 N   0  0  0  0  0  0  0  0  0  0  0  0
   -0.8030   11.5943   -7.1763 C   0  0  0  0  0  0  0  0  0  0  0  0
    0.3771   14.6141   -5.9576 C   0  0  0  0  0  0  0  0  0  0  0  0
   -3.4422   12.5360  -11.3947 C   0  0  0  0  0  0  0  0  0  0  0  0
   -2.3230   13.6139  -11.4067 C   0  0  0  0  0  0  0  0  0  0  0  0
   -3.2958   14.6820  -11.9593 C   0  0  0  0  0  0  0  0  0  0  0  0
   -1.7380   13.9356  -10.1565 O   0  0  0  0  0  0  0  0  0  0  0  0
   -5.4830   11.7758  -12.2318 H   0  0  0  0  0  0  0  0  0  0  0  0
   -6.0005   12.2762   -9.9046 H   0  0  0  0  0  0  0  0  0  0  0  0
   -8.1812   10.1071  -13.8902 H   0  0  0  0  0  0  0  0  0  0  0  0
   -6.9530   12.2555  -14.0918 H   0  0  0  0  0  0  0  0  0  0  0  0
   -8.0288    9.5892   -7.2517 H   0  0  0  0  0  0  0  0  0  0  0  0
   -4.8882    8.7841   -8.4909 H   0  0  0  0  0  0  0  0  0  0  0  0
   -2.6627    9.7615   -8.0471 H   0  0  0  0  0  0  0  0  0  0  0  0
   -4.5238   13.2903   -6.4741 H   0  0  0  0  0  0  0  0  0  0  0  0
   -6.3821   12.4502   -7.8329 H   0  0  0  0  0  0  0  0  0  0  0  0
   -6.3800   11.7126   -6.1951 H   0  0  0  0  0  0  0  0  0  0  0  0
   -2.4606   14.2195   -6.1845 H   0  0  0  0  0  0  0  0  0  0  0  0
   -0.6435   10.6063   -7.5823 H   0  0  0  0  0  0  0  0  0  0  0  0
    1.4419   14.3470   -6.0280 H   0  0  0  0  0  0  0  0  0  0  0  0
    0.1769   15.4918   -6.5897 H   0  0  0  0  0  0  0  0  0  0  0  0
    0.1266   14.8499   -4.9128 H   0  0  0  0  0  0  0  0  0  0  0  0
   -3.6551   12.0930  -10.4106 H   0  0  0  0  0  0  0  0  0  0  0  0
   -3.3293   11.7354  -12.1405 H   0  0  0  0  0  0  0  0  0  0  0  0
   -1.5662   13.3629  -12.1645 H   0  0  0  0  0  0  0  0  0  0  0  0
   -3.1063   14.9918  -12.9976 H   0  0  0  0  0  0  0  0  0  0  0  0
   -3.4165   15.5738  -11.3267 H   0  0  0  0  0  0  0  0  0  0  0  0
   -1.0709   14.6005  -10.2803 H   0  0  0  0  0  0  0  0  0  0  0  0
  1  2  1  0  0  0  0
  1  4  1  0  0  0  0
  1 12  1  0  0  0  0
  2  6  2  0  0  0  0
  3  4  2  0  0  0  0
  3  5  1  0  0  0  0
  5  6  1  0  0  0  0
  5  9  2  0  0  0  0
  6  7  1  0  0  0  0
  7  8  2  0  0  0  0
  7 10  1  0  0  0  0
  8  9  1  0  0  0  0
 10 14  2  3  0  0  0
 11 12  1  0  0  0  0
 11 26  1  0  0  0  0
 11 28  1  0  0  0  0
 12 13  2  0  0  0  0
 14 15  1  0  0  0  0
 14 19  1  0  0  0  0
 15 16  2  0  0  0  0
 16 17  1  0  0  0  0
 17 18  2  0  0  0  0
 17 20  1  0  0  0  0
 18 19  1  0  0  0  0
 20 21  2  0  0  0  0
 20 24  1  0  0  0  0
 21 22  1  0  0  0  0
 22 23  1  0  0  0  0
 22 25  1  0  0  0  0
 23 24  2  0  0  0  0
 26 27  1  0  0  0  0
 27 28  1  0  0  0  0
 27 29  1  0  0  0  0
  1 30  1  0  0  0  0
  2 31  1  0  0  0  0
  3 32  1  0  0  0  0
  4 33  1  0  0  0  0
 10 34  1  0  0  0  0
 15 35  1  0  0  0  0
 16 36  1  0  0  0  0
 18 37  1  0  0  0  0
 19 38  1  0  0  0  0
 19 39  1  0  0  0  0
 21 40  1  0  0  0  0
 24 41  1  0  0  0  0
 25 42  1  0  0  0  0
 25 43  1  0  0  0  0
 25 44  1  0  0  0  0
 26 45  1  0  0  0  0
 26 46  1  0  0  0  0
 27 47  1  0  0  0  0
 28 48  1  0  0  0  0
 28 49  1  0  0  0  0
 29 50  1  0  0  0  0
M  END
> <Name>
35

> <IC50[uM]>
0.004

$$$$
35
  -OEChem-05192314333D
 Structure written by MMmdl.
 50 54  0     1  0  0  0  0  0999 V2000
   -6.3895   12.3678  -12.0373 C   0  0  0  0  0  0  0  0  0  0  0  0
   -6.4824   11.8098  -10.7511 C   0  0  0  0  0  0  0  0  0  0  0  0
   -7.7271   10.5745  -13.0290 C   0  0  0  0  0  0  0  0  0  0  0  0
   -7.0179   11.7711  -13.1287 C   0  0  0  0  0  0  0  0  0  0  0  0
   -7.8170   10.0145  -11.7522 C   0  0  0  0  0  0  0  0  0  0  0  0
   -7.2238   10.6236  -10.6024 C   0  0  3  0  0  0  0  0  0  0  0  0
   -7.6044    9.7508   -9.5065 C   0  0  0  0  0  0  0  0  0  0  0  0
   -8.2828    8.7443   -9.9813 N   0  0  0  0  0  0  0  0  0  0  0  0
   -8.4172    8.8704  -11.2949 N   0  0  0  0  0  0  0  0  0  0  0  0
   -7.3303    9.8854   -8.0203 C   0  0  0  0  0  0  0  0  0  0  0  0
   -4.3418   13.6528  -11.7950 N   0  0  0  0  0  0  0  0  0  0  0  0
   -5.6106   13.6402  -12.2589 C   0  0  0  0  0  0  0  0  0  0  0  0
   -6.1045   14.5768  -12.8828 O   0  0  0  0  0  0  0  0  0  0  0  0
   -5.9605   10.4846   -7.7337 C   0  0  0  0  0  0  0  0  0  0  0  0
   -4.8084    9.7674   -8.0514 C   0  0  0  0  0  0  0  0  0  0  0  0
   -3.5547   10.3189   -7.8020 C   0  0  0  0  0  0  0  0  0  0  0  0
   -3.4471   11.5931   -7.2348 C   0  0  0  0  0  0  0  0  0  0  0  0
   -4.6026   12.3073   -6.9145 C   0  0  0  0  0  0  0  0  0  0  0  0
   -5.8562   11.7556   -7.1614 C   0  0  0  0  0  0  0  0  0  0  0  0
   -2.1021   12.1835   -6.9708 C   0  0  0  0  0  0  0  0  0  0  0  0
   -1.7710   13.4390   -6.4702 C   0  0  0  0  0  0  0  0  0  0  0  0
   -0.4354   13.4950   -6.4103 N   0  0  0  0  0  0  0  0  0  0  0  0
    0.1709   12.4112   -6.8070 N   0  0  0  0  0  0  0  0  0  0  0  0
   -0.8030   11.5943   -7.1763 C   0  0  0  0  0  0  0  0  0  0  0  0
    0.3771   14.6141   -5.9576 C   0  0  0  0  0  0  0  0  0  0  0  0
   -3.4422   12.5360  -11.3947 C   0  0  0  0  0  0  0  0  0  0  0  0
   -2.3230   13.6139  -11.4067 C   0  0  0  0  0  0  0  0  0  0  0  0
   -3.2958   14.6820  -11.9593 C   0  0  0  0  0  0  0  0  0  0  0  0
   -1.7380   13.9356  -10.1565 O   0  0  0  0  0  0  0  0  0  0  0  0
   -6.0005   12.2762   -9.9046 H   0  0  0  0  0  0  0  0  0  0  0  0
   -8.1812   10.1071  -13.8902 H   0  0  0  0  0  0  0  0  0  0  0  0
   -6.9530   12.2555  -14.0918 H   0  0  0  0  0  0  0  0  0  0  0  0
   -6.3101   10.0314  -10.7584 H   0  0  0  0  0  0  0  0  0  0  0  0
   -8.0288    9.5892   -7.2517 H   0  0  0  0  0  0  0  0  0  0  0  0
   -4.8882    8.7841   -8.4909 H   0  0  0  0  0  0  0  0  0  0  0  0
   -2.6627    9.7615   -8.0471 H   0  0  0  0  0  0  0  0  0  0  0  0
   -4.5238   13.2903   -6.4741 H   0  0  0  0  0  0  0  0  0  0  0  0
   -6.3821   12.4502   -7.8329 H   0  0  0  0  0  0  0  0  0  0  0  0
   -6.3800   11.7126   -6.1951 H   0  0  0  0  0  0  0  0  0  0  0  0
   -2.4606   14.2195   -6.1845 H   0  0  0  0  0  0  0  0  0  0  0  0
   -0.6435   10.6063   -7.5823 H   0  0  0  0  0  0  0  0  0  0  0  0
    1.4419   14.3470   -6.0280 H   0  0  0  0  0  0  0  0  0  0  0  0
    0.1769   15.4918   -6.5897 H   0  0  0  0  0  0  0  0  0  0  0  0
    0.1266   14.8499   -4.9128 H   0  0  0  0  0  0  0  0  0  0  0  0
   -3.6551   12.0930  -10.4106 H   0  0  0  0  0  0  0  0  0  0  0  0
   -3.3293   11.7354  -12.1405 H   0  0  0  0  0  0  0  0  0  0  0  0
   -1.5662   13.3629  -12.1645 H   0  0  0  0  0  0  0  0  0  0  0  0
   -3.1063   14.9918  -12.9976 H   0  0  0  0  0  0  0  0  0  0  0  0
   -3.4165   15.5738  -11.3267 H   0  0  0  0  0  0  0  0  0  0  0  0
   -1.0709   14.6005  -10.2803 H   0  0  0  0  0  0  0  0  0  0  0  0
  1  2  2  0  0  0  0
  1  4  1  0  0  0  0
  1 12  1  0  0  0  0
  2  6  1  0  0  0  0
  3  4  2  0  0  0  0
  3  5  1  0  0  0  0
  5  6  1  0  0  0  0
  5  9  2  0  0  0  0
  6  7  1  0  0  0  0
  7  8  2  0  0  0  0
  7 10  1  0  0  0  0
  8  9  1  0  0  0  0
 10 14  2  3  0  0  0
 11 12  1  0  0  0  0
 11 26  1  0  0  0  0
 11 28  1  0  0  0  0
 12 13  2  0  0  0  0
 14 15  1  0  0  0  0
 14 19  1  0  0  0  0
 15 16  2  0  0  0  0
 16 17  1  0  0  0  0
 17 18  2  0  0  0  0
 17 20  1  0  0  0  0
 18 19  1  0  0  0  0
 20 21  2  0  0  0  0
 20 24  1  0  0  0  0
 21 22  1  0  0  0  0
 22 23  1  0  0  0  0
 22 25  1  0  0  0  0
 23 24  2  0  0  0  0
 26 27  1  0  0  0  0
 27 28  1  0  0  0  0
 27 29  1  0  0  0  0
  2 30  1  0  0  0  0
  3 31  1  0  0  0  0
  4 32  1  0  0  0  0
  6 33  1  0  0  0  0
 10 34  1  0  0  0  0
 15 35  1  0  0  0  0
 16 36  1  0  0  0  0
 18 37  1  0  0  0  0
 19 38  1  0  0  0  0
 19 39  1  0  0  0  0
 21 40  1  0  0  0  0
 24 41  1  0  0  0  0
 25 42  1  0  0  0  0
 25 43  1  0  0  0  0
 25 44  1  0  0  0  0
 26 45  1  0  0  0  0
 26 46  1  0  0  0  0
 27 47  1  0  0  0  0
 28 48  1  0  0  0  0
 28 49  1  0  0  0  0
 29 50  1  0  0  0  0
M  END
> <Name>
35

> <IC50[uM]>
0.004

$$$$
35
  -OEChem-05192314333D
 Structure written by MMmdl.
 50 54  0     0  0  0  0  0  0999 V2000
   -6.3895   12.3678  -12.0373 C   0  0  0  0  0  0  0  0  0  0  0  0
   -6.4824   11.8098  -10.7511 C   0  0  0  0  0  0  0  0  0  0  0  0
   -7.7271   10.5745  -13.0290 C   0  0  0  0  0  0  0  0  0  0  0  0
   -7.0179   11.7711  -13.1287 C   0  0  0  0  0  0  0  0  0  0  0  0
   -7.8170   10.0145  -11.7522 C   0  0  0  0  0  0  0  0  0  0  0  0
   -7.2238   10.6236  -10.6024 C   0  0  0  0  0  0  0  0  0  0  0  0
   -7.6044    9.7508   -9.5065 C   0  0  0  0  0  0  0  0  0  0  0  0
   -8.2828    8.7443   -9.9813 N   0  0  0  0  0  0  0  0  0  0  0  0
   -8.4172    8.8704  -11.2949 N   0  0  0  0  0  0  0  0  0  0  0  0
   -7.3303    9.8854   -8.0203 C   0  0  0  0  0  0  0  0  0  0  0  0
   -4.3418   13.6528  -11.7950 N   0  0  0  0  0  0  0  0  0  0  0  0
   -5.6106   13.6402  -12.2589 C   0  0  0  0  0  0  0  0  0  0  0  0
   -6.1045   14.5768  -12.8828 O   0  0  0  0  0  0  0  0  0  0  0  0
   -5.9605   10.4846   -7.7337 C   0  0  0  0  0  0  0  0  0  0  0  0
   -4.8084    9.7674   -8.0514 C   0  0  0  0  0  0  0  0  0  0  0  0
   -3.5547   10.3189   -7.8020 C   0  0  0  0  0  0  0  0  0  0  0  0
   -3.4471   11.5931   -7.2348 C   0  0  0  0  0  0  0  0  0  0  0  0
   -4.6026   12.3073   -6.9145 C   0  0  0  0  0  0  0  0  0  0  0  0
   -5.8562   11.7556   -7.1614 C   0  0  0  0  0  0  0  0  0  0  0  0
   -2.1021   12.1835   -6.9708 C   0  0  0  0  0  0  0  0  0  0  0  0
   -1.7710   13.4390   -6.4702 C   0  0  0  0  0  0  0  0  0  0  0  0
   -0.4354   13.4950   -6.4103 N   0  0  0  0  0  0  0  0  0  0  0  0
    0.1709   12.4112   -6.8070 N   0  0  0  0  0  0  0  0  0  0  0  0
   -0.8030   11.5943   -7.1763 C   0  0  0  0  0  0  0  0  0  0  0  0
    0.3771   14.6141   -5.9576 C   0  0  0  0  0  0  0  0  0  0  0  0
   -3.4422   12.5360  -11.3947 C   0  0  0  0  0  0  0  0  0  0  0  0
   -2.3230   13.6139  -11.4067 C   0  0  0  0  0  0  0  0  0  0  0  0
   -3.2958   14.6820  -11.9593 C   0  0  0  0  0  0  0  0  0  0  0  0
   -1.7380   13.9356  -10.1565 O   0  0  0  0  0  0  0  0  0  0  0  0
   -6.0005   12.2762   -9.9046 H   0  0  0  0  0  0  0  0  0  0  0  0
   -8.7506   10.7604  -13.3866 H   0  0  0  0  0  0  0  0  0  0  0  0
   -7.2377    9.8389  -13.6842 H   0  0  0  0  0  0  0  0  0  0  0  0
   -6.9530   12.2555  -14.0918 H   0  0  0  0  0  0  0  0  0  0  0  0
   -8.0288    9.5892   -7.2517 H   0  0  0  0  0  0  0  0  0  0  0  0
   -4.8882    8.7841   -8.4909 H   0  0  0  0  0  0  0  0  0  0  0  0
   -2.6627    9.7615   -8.0471 H   0  0  0  0  0  0  0  0  0  0  0  0
   -4.5238   13.2903   -6.4741 H   0  0  0  0  0  0  0  0  0  0  0  0
   -6.3821   12.4502   -7.8329 H   0  0  0  0  0  0  0  0  0  0  0  0
   -6.3800   11.7126   -6.1951 H   0  0  0  0  0  0  0  0  0  0  0  0
   -2.4606   14.2195   -6.1845 H   0  0  0  0  0  0  0  0  0  0  0  0
   -0.6435   10.6063   -7.5823 H   0  0  0  0  0  0  0  0  0  0  0  0
    1.4419   14.3470   -6.0280 H   0  0  0  0  0  0  0  0  0  0  0  0
    0.1769   15.4918   -6.5897 H   0  0  0  0  0  0  0  0  0  0  0  0
    0.1266   14.8499   -4.9128 H   0  0  0  0  0  0  0  0  0  0  0  0
   -3.6551   12.0930  -10.4106 H   0  0  0  0  0  0  0  0  0  0  0  0
   -3.3293   11.7354  -12.1405 H   0  0  0  0  0  0  0  0  0  0  0  0
   -1.5662   13.3629  -12.1645 H   0  0  0  0  0  0  0  0  0  0  0  0
   -3.1063   14.9918  -12.9976 H   0  0  0  0  0  0  0  0  0  0  0  0
   -3.4165   15.5738  -11.3267 H   0  0  0  0  0  0  0  0  0  0  0  0
   -1.0709   14.6005  -10.2803 H   0  0  0  0  0  0  0  0  0  0  0  0
  1  2  1  0  0  0  0
  1  4  2  0  0  0  0
  1 12  1  0  0  0  0
  2  6  2  0  0  0  0
  3  4  1  0  0  0  0
  3  5  1  0  0  0  0
  5  6  1  0  0  0  0
  5  9  2  0  0  0  0
  6  7  1  0  0  0  0
  7  8  2  0  0  0  0
  7 10  1  0  0  0  0
  8  9  1  0  0  0  0
 10 14  2  3  0  0  0
 11 12  1  0  0  0  0
 11 26  1  0  0  0  0
 11 28  1  0  0  0  0
 12 13  2  0  0  0  0
 14 15  1  0  0  0  0
 14 19  1  0  0  0  0
 15 16  2  0  0  0  0
 16 17  1  0  0  0  0
 17 18  2  0  0  0  0
 17 20  1  0  0  0  0
 18 19  1  0  0  0  0
 20 21  2  0  0  0  0
 20 24  1  0  0  0  0
 21 22  1  0  0  0  0
 22 23  1  0  0  0  0
 22 25  1  0  0  0  0
 23 24  2  0  0  0  0
 26 27  1  0  0  0  0
 27 28  1  0  0  0  0
 27 29  1  0  0  0  0
  2 30  1  0  0  0  0
  3 31  1  0  0  0  0
  3 32  1  0  0  0  0
  4 33  1  0  0  0  0
 10 34  1  0  0  0  0
 15 35  1  0  0  0  0
 16 36  1  0  0  0  0
 18 37  1  0  0  0  0
 19 38  1  0  0  0  0
 19 39  1  0  0  0  0
 21 40  1  0  0  0  0
 24 41  1  0  0  0  0
 25 42  1  0  0  0  0
 25 43  1  0  0  0  0
 25 44  1  0  0  0  0
 26 45  1  0  0  0  0
 26 46  1  0  0  0  0
 27 47  1  0  0  0  0
 28 48  1  0  0  0  0
 28 49  1  0  0  0  0
 29 50  1  0  0  0  0
M  END
> <Name>
35

> <IC50[uM]>
0.004

$$$$
35
  -OEChem-05192314333D
 Structure written by MMmdl.
 50 54  0     1  0  0  0  0  0999 V2000
   -6.3895   12.3678  -12.0373 C   0  0  0  0  0  0  0  0  0  0  0  0
   -6.4824   11.8098  -10.7511 C   0  0  0  0  0  0  0  0  0  0  0  0
   -7.7271   10.5745  -13.0290 C   0  0  0  0  0  0  0  0  0  0  0  0
   -7.0179   11.7711  -13.1287 C   0  0  0  0  0  0  0  0  0  0  0  0
   -7.8170   10.0145  -11.7522 C   0  0  3  0  0  0  0  0  0  0  0  0
   -7.2238   10.6236  -10.6024 C   0  0  0  0  0  0  0  0  0  0  0  0
   -7.6044    9.7508   -9.5065 C   0  0  0  0  0  0  0  0  0  0  0  0
   -8.2828    8.7443   -9.9813 N   0  0  0  0  0  0  0  0  0  0  0  0
   -8.4172    8.8704  -11.2949 N   0  0  0  0  0  0  0  0  0  0  0  0
   -7.3303    9.8854   -8.0203 C   0  0  0  0  0  0  0  0  0  0  0  0
   -4.3418   13.6528  -11.7950 N   0  0  0  0  0  0  0  0  0  0  0  0
   -5.6106   13.6402  -12.2589 C   0  0  0  0  0  0  0  0  0  0  0  0
   -6.1045   14.5768  -12.8828 O   0  0  0  0  0  0  0  0  0  0  0  0
   -5.9605   10.4846   -7.7337 C   0  0  0  0  0  0  0  0  0  0  0  0
   -4.8084    9.7674   -8.0514 C   0  0  0  0  0  0  0  0  0  0  0  0
   -3.5547   10.3189   -7.8020 C   0  0  0  0  0  0  0  0  0  0  0  0
   -3.4471   11.5931   -7.2348 C   0  0  0  0  0  0  0  0  0  0  0  0
   -4.6026   12.3073   -6.9145 C   0  0  0  0  0  0  0  0  0  0  0  0
   -5.8562   11.7556   -7.1614 C   0  0  0  0  0  0  0  0  0  0  0  0
   -2.1021   12.1835   -6.9708 C   0  0  0  0  0  0  0  0  0  0  0  0
   -1.7710   13.4390   -6.4702 C   0  0  0  0  0  0  0  0  0  0  0  0
   -0.4354   13.4950   -6.4103 N   0  0  0  0  0  0  0  0  0  0  0  0
    0.1709   12.4112   -6.8070 N   0  0  0  0  0  0  0  0  0  0  0  0
   -0.8030   11.5943   -7.1763 C   0  0  0  0  0  0  0  0  0  0  0  0
    0.3771   14.6141   -5.9576 C   0  0  0  0  0  0  0  0  0  0  0  0
   -3.4422   12.5360  -11.3947 C   0  0  0  0  0  0  0  0  0  0  0  0
   -2.3230   13.6139  -11.4067 C   0  0  0  0  0  0  0  0  0  0  0  0
   -3.2958   14.6820  -11.9593 C   0  0  0  0  0  0  0  0  0  0  0  0
   -1.7380   13.9356  -10.1565 O   0  0  0  0  0  0  0  0  0  0  0  0
   -6.0005   12.2762   -9.9046 H   0  0  0  0  0  0  0  0  0  0  0  0
   -8.1812   10.1071  -13.8902 H   0  0  0  0  0  0  0  0  0  0  0  0
   -6.9530   12.2555  -14.0918 H   0  0  0  0  0  0  0  0  0  0  0  0
   -8.7459   10.5752  -11.5709 H   0  0  0  0  0  0  0  0  0  0  0  0
   -8.0288    9.5892   -7.2517 H   0  0  0  0  0  0  0  0  0  0  0  0
   -4.8882    8.7841   -8.4909 H   0  0  0  0  0  0  0  0  0  0  0  0
   -2.6627    9.7615   -8.0471 H   0  0  0  0  0  0  0  0  0  0  0  0
   -3.4475   12.0413   -8.2394 H   0  0  0  0  0  0  0  0  0  0  0  0
   -4.5238   13.2903   -6.4741 H   0  0  0  0  0  0  0  0  0  0  0  0
   -6.7487   12.3097   -6.9107 H   0  0  0  0  0  0  0  0  0  0  0  0
   -2.4606   14.2195   -6.1845 H   0  0  0  0  0  0  0  0  0  0  0  0
   -0.6435   10.6063   -7.5823 H   0  0  0  0  0  0  0  0  0  0  0  0
    1.4419   14.3470   -6.0280 H   0  0  0  0  0  0  0  0  0  0  0  0
    0.1769   15.4918   -6.5897 H   0  0  0  0  0  0  0  0  0  0  0  0
    0.1266   14.8499   -4.9128 H   0  0  0  0  0  0  0  0  0  0  0  0
   -3.6551   12.0930  -10.4106 H   0  0  0  0  0  0  0  0  0  0  0  0
   -3.3293   11.7354  -12.1405 H   0  0  0  0  0  0  0  0  0  0  0  0
   -1.5662   13.3629  -12.1645 H   0  0  0  0  0  0  0  0  0  0  0  0
   -3.1063   14.9918  -12.9976 H   0  0  0  0  0  0  0  0  0  0  0  0
   -3.4165   15.5738  -11.3267 H   0  0  0  0  0  0  0  0  0  0  0  0
   -1.0709   14.6005  -10.2803 H   0  0  0  0  0  0  0  0  0  0  0  0
  1  2  2  0  0  0  0
  1  4  1  0  0  0  0
  1 12  1  0  0  0  0
  2  6  1  0  0  0  0
  3  4  2  0  0  0  0
  3  5  1  0  0  0  0
  5  6  1  0  0  0  0
  5  9  1  0  0  0  0
  6  7  2  0  0  0  0
  7  8  1  0  0  0  0
  7 10  1  0  0  0  0
  8  9  2  0  0  0  0
 10 14  2  0  0  0  0
 11 12  1  0  0  0  0
 11 26  1  0  0  0  0
 11 28  1  0  0  0  0
 12 13  2  0  0  0  0
 14 15  1  0  0  0  0
 14 19  1  0  0  0  0
 15 16  2  0  0  0  0
 16 17  1  0  0  0  0
 17 18  1  0  0  0  0
 17 20  1  0  0  0  0
 18 19  2  0  0  0  0
 20 21  2  0  0  0  0
 20 24  1  0  0  0  0
 21 22  1  0  0  0  0
 22 23  1  0  0  0  0
 22 25  1  0  0  0  0
 23 24  2  0  0  0  0
 26 27  1  0  0  0  0
 27 28  1  0  0  0  0
 27 29  1  0  0  0  0
  2 30  1  0  0  0  0
  3 31  1  0  0  0  0
  4 32  1  0  0  0  0
  5 33  1  0  0  0  0
 10 34  1  0  0  0  0
 15 35  1  0  0  0  0
 16 36  1  0  0  0  0
 17 37  1  0  0  0  0
 18 38  1  0  0  0  0
 19 39  1  0  0  0  0
 21 40  1  0  0  0  0
 24 41  1  0  0  0  0
 25 42  1  0  0  0  0
 25 43  1  0  0  0  0
 25 44  1  0  0  0  0
 26 45  1  0  0  0  0
 26 46  1  0  0  0  0
 27 47  1  0  0  0  0
 28 48  1  0  0  0  0
 28 49  1  0  0  0  0
 29 50  1  0  0  0  0
M  END
> <Name>
35

> <IC50[uM]>
0.004

$$$$
35
  -OEChem-05192314333D
 Structure written by MMmdl.
 50 54  0     0  0  0  0  0  0999 V2000
   -6.3895   12.3678  -12.0373 C   0  0  0  0  0  0  0  0  0  0  0  0
   -6.4824   11.8098  -10.7511 C   0  0  0  0  0  0  0  0  0  0  0  0
   -7.7271   10.5745  -13.0290 C   0  0  0  0  0  0  0  0  0  0  0  0
   -7.0179   11.7711  -13.1287 C   0  0  0  0  0  0  0  0  0  0  0  0
   -7.8170   10.0145  -11.7522 C   0  0  0  0  0  0  0  0  0  0  0  0
   -7.2238   10.6236  -10.6024 C   0  0  0  0  0  0  0  0  0  0  0  0
   -7.6044    9.7508   -9.5065 C   0  0  0  0  0  0  0  0  0  0  0  0
   -8.2828    8.7443   -9.9813 N   0  0  0  0  0  0  0  0  0  0  0  0
   -8.4172    8.8704  -11.2949 N   0  0  0  0  0  0  0  0  0  0  0  0
   -7.3303    9.8854   -8.0203 C   0  0  0  0  0  0  0  0  0  0  0  0
   -4.3418   13.6528  -11.7950 N   0  0  0  0  0  0  0  0  0  0  0  0
   -5.6106   13.6402  -12.2589 C   0  0  0  0  0  0  0  0  0  0  0  0
   -6.1045   14.5768  -12.8828 O   0  0  0  0  0  0  0  0  0  0  0  0
   -5.9605   10.4846   -7.7337 C   0  0  0  0  0  0  0  0  0  0  0  0
   -4.8084    9.7674   -8.0514 C   0  0  0  0  0  0  0  0  0  0  0  0
   -3.5547   10.3189   -7.8020 C   0  0  0  0  0  0  0  0  0  0  0  0
   -3.4471   11.5931   -7.2348 C   0  0  0  0  0  0  0  0  0  0  0  0
   -4.6026   12.3073   -6.9145 C   0  0  0  0  0  0  0  0  0  0  0  0
   -5.8562   11.7556   -7.1614 C   0  0  0  0  0  0  0  0  0  0  0  0
   -2.1021   12.1835   -6.9708 C   0  0  0  0  0  0  0  0  0  0  0  0
   -1.7710   13.4390   -6.4702 C   0  0  0  0  0  0  0  0  0  0  0  0
   -0.4354   13.4950   -6.4103 N   0  0  0  0  0  0  0  0  0  0  0  0
    0.1709   12.4112   -6.8070 N   0  0  0  0  0  0  0  0  0  0  0  0
   -0.8030   11.5943   -7.1763 C   0  0  0  0  0  0  0  0  0  0  0  0
    0.3771   14.6141   -5.9576 C   0  0  0  0  0  0  0  0  0  0  0  0
   -3.4422   12.5360  -11.3947 C   0  0  0  0  0  0  0  0  0  0  0  0
   -2.3230   13.6139  -11.4067 C   0  0  0  0  0  0  0  0  0  0  0  0
   -3.2958   14.6820  -11.9593 C   0  0  0  0  0  0  0  0  0  0  0  0
   -1.7380   13.9356  -10.1565 O   0  0  0  0  0  0  0  0  0  0  0  0
   -6.0005   12.2762   -9.9046 H   0  0  0  0  0  0  0  0  0  0  0  0
   -8.1812   10.1071  -13.8902 H   0  0  0  0  0  0  0  0  0  0  0  0
   -7.7299   12.5156  -13.5144 H   0  0  0  0  0  0  0  0  0  0  0  0
   -6.2295   11.5963  -13.8757 H   0  0  0  0  0  0  0  0  0  0  0  0
   -8.0288    9.5892   -7.2517 H   0  0  0  0  0  0  0  0  0  0  0  0
   -4.8882    8.7841   -8.4909 H   0  0  0  0  0  0  0  0  0  0  0  0
   -2.6627    9.7615   -8.0471 H   0  0  0  0  0  0  0  0  0  0  0  0
   -3.4475   12.0413   -8.2394 H   0  0  0  0  0  0  0  0  0  0  0  0
   -4.5238   13.2903   -6.4741 H   0  0  0  0  0  0  0  0  0  0  0  0
   -6.7487   12.3097   -6.9107 H   0  0  0  0  0  0  0  0  0  0  0  0
   -2.4606   14.2195   -6.1845 H   0  0  0  0  0  0  0  0  0  0  0  0
   -0.6435   10.6063   -7.5823 H   0  0  0  0  0  0  0  0  0  0  0  0
    1.4419   14.3470   -6.0280 H   0  0  0  0  0  0  0  0  0  0  0  0
    0.1769   15.4918   -6.5897 H   0  0  0  0  0  0  0  0  0  0  0  0
    0.1266   14.8499   -4.9128 H   0  0  0  0  0  0  0  0  0  0  0  0
   -3.6551   12.0930  -10.4106 H   0  0  0  0  0  0  0  0  0  0  0  0
   -3.3293   11.7354  -12.1405 H   0  0  0  0  0  0  0  0  0  0  0  0
   -1.5662   13.3629  -12.1645 H   0  0  0  0  0  0  0  0  0  0  0  0
   -3.1063   14.9918  -12.9976 H   0  0  0  0  0  0  0  0  0  0  0  0
   -3.4165   15.5738  -11.3267 H   0  0  0  0  0  0  0  0  0  0  0  0
   -1.0709   14.6005  -10.2803 H   0  0  0  0  0  0  0  0  0  0  0  0
  1  2  2  0  0  0  0
  1  4  1  0  0  0  0
  1 12  1  0  0  0  0
  2  6  1  0  0  0  0
  3  4  1  0  0  0  0
  3  5  2  0  0  0  0
  5  6  1  0  0  0  0
  5  9  1  0  0  0  0
  6  7  2  0  0  0  0
  7  8  1  0  0  0  0
  7 10  1  0  0  0  0
  8  9  2  0  0  0  0
 10 14  2  0  0  0  0
 11 12  1  0  0  0  0
 11 26  1  0  0  0  0
 11 28  1  0  0  0  0
 12 13  2  0  0  0  0
 14 15  1  0  0  0  0
 14 19  1  0  0  0  0
 15 16  2  0  0  0  0
 16 17  1  0  0  0  0
 17 18  1  0  0  0  0
 17 20  1  0  0  0  0
 18 19  2  0  0  0  0
 20 21  2  0  0  0  0
 20 24  1  0  0  0  0
 21 22  1  0  0  0  0
 22 23  1  0  0  0  0
 22 25  1  0  0  0  0
 23 24  2  0  0  0  0
 26 27  1  0  0  0  0
 27 28  1  0  0  0  0
 27 29  1  0  0  0  0
  2 30  1  0  0  0  0
  3 31  1  0  0  0  0
  4 32  1  0  0  0  0
  4 33  1  0  0  0  0
 10 34  1  0  0  0  0
 15 35  1  0  0  0  0
 16 36  1  0  0  0  0
 17 37  1  0  0  0  0
 18 38  1  0  0  0  0
 19 39  1  0  0  0  0
 21 40  1  0  0  0  0
 24 41  1  0  0  0  0
 25 42  1  0  0  0  0
 25 43  1  0  0  0  0
 25 44  1  0  0  0  0
 26 45  1  0  0  0  0
 26 46  1  0  0  0  0
 27 47  1  0  0  0  0
 28 48  1  0  0  0  0
 28 49  1  0  0  0  0
 29 50  1  0  0  0  0
M  END
> <Name>
35

> <IC50[uM]>
0.004

$$$$
35
  -OEChem-05192314333D
 Structure written by MMmdl.
 50 54  0     1  0  0  0  0  0999 V2000
   -6.3895   12.3678  -12.0373 C   0  0  0  0  0  0  0  0  0  0  0  0
   -6.4824   11.8098  -10.7511 C   0  0  0  0  0  0  0  0  0  0  0  0
   -7.7271   10.5745  -13.0290 C   0  0  0  0  0  0  0  0  0  0  0  0
   -7.0179   11.7711  -13.1287 C   0  0  0  0  0  0  0  0  0  0  0  0
   -7.8170   10.0145  -11.7522 C   0  0  3  0  0  0  0  0  0  0  0  0
   -7.2238   10.6236  -10.6024 C   0  0  0  0  0  0  0  0  0  0  0  0
   -7.6044    9.7508   -9.5065 C   0  0  0  0  0  0  0  0  0  0  0  0
   -8.2828    8.7443   -9.9813 N   0  0  0  0  0  0  0  0  0  0  0  0
   -8.4172    8.8704  -11.2949 N   0  0  0  0  0  0  0  0  0  0  0  0
   -7.3303    9.8854   -8.0203 C   0  0  0  0  0  0  0  0  0  0  0  0
   -4.3418   13.6528  -11.7950 N   0  0  0  0  0  0  0  0  0  0  0  0
   -5.6106   13.6402  -12.2589 C   0  0  0  0  0  0  0  0  0  0  0  0
   -6.1045   14.5768  -12.8828 O   0  0  0  0  0  0  0  0  0  0  0  0
   -5.9605   10.4846   -7.7337 C   0  0  0  0  0  0  0  0  0  0  0  0
   -4.8084    9.7674   -8.0514 C   0  0  0  0  0  0  0  0  0  0  0  0
   -3.5547   10.3189   -7.8020 C   0  0  0  0  0  0  0  0  0  0  0  0
   -3.4471   11.5931   -7.2348 C   0  0  0  0  0  0  0  0  0  0  0  0
   -4.6026   12.3073   -6.9145 C   0  0  0  0  0  0  0  0  0  0  0  0
   -5.8562   11.7556   -7.1614 C   0  0  0  0  0  0  0  0  0  0  0  0
   -2.1021   12.1835   -6.9708 C   0  0  0  0  0  0  0  0  0  0  0  0
   -1.7710   13.4390   -6.4702 C   0  0  0  0  0  0  0  0  0  0  0  0
   -0.4354   13.4950   -6.4103 N   0  0  0  0  0  0  0  0  0  0  0  0
    0.1709   12.4112   -6.8070 N   0  0  0  0  0  0  0  0  0  0  0  0
   -0.8030   11.5943   -7.1763 C   0  0  0  0  0  0  0  0  0  0  0  0
    0.3771   14.6141   -5.9576 C   0  0  0  0  0  0  0  0  0  0  0  0
   -3.4422   12.5360  -11.3947 C   0  0  0  0  0  0  0  0  0  0  0  0
   -2.3230   13.6139  -11.4067 C   0  0  0  0  0  0  0  0  0  0  0  0
   -3.2958   14.6820  -11.9593 C   0  0  0  0  0  0  0  0  0  0  0  0
   -1.7380   13.9356  -10.1565 O   0  0  0  0  0  0  0  0  0  0  0  0
   -6.0005   12.2762   -9.9046 H   0  0  0  0  0  0  0  0  0  0  0  0
   -8.1812   10.1071  -13.8902 H   0  0  0  0  0  0  0  0  0  0  0  0
   -6.9530   12.2555  -14.0918 H   0  0  0  0  0  0  0  0  0  0  0  0
   -8.7459   10.5752  -11.5709 H   0  0  0  0  0  0  0  0  0  0  0  0
   -8.0288    9.5892   -7.2517 H   0  0  0  0  0  0  0  0  0  0  0  0
   -4.8882    8.7841   -8.4909 H   0  0  0  0  0  0  0  0  0  0  0  0
   -2.6627    9.7615   -8.0471 H   0  0  0  0  0  0  0  0  0  0  0  0
   -4.5238   13.2903   -6.4741 H   0  0  0  0  0  0  0  0  0  0  0  0
   -6.3821   12.4502   -7.8329 H   0  0  0  0  0  0  0  0  0  0  0  0
   -6.3800   11.7126   -6.1951 H   0  0  0  0  0  0  0  0  0  0  0  0
   -2.4606   14.2195   -6.1845 H   0  0  0  0  0  0  0  0  0  0  0  0
   -0.6435   10.6063   -7.5823 H   0  0  0  0  0  0  0  0  0  0  0  0
    1.4419   14.3470   -6.0280 H   0  0  0  0  0  0  0  0  0  0  0  0
    0.1769   15.4918   -6.5897 H   0  0  0  0  0  0  0  0  0  0  0  0
    0.1266   14.8499   -4.9128 H   0  0  0  0  0  0  0  0  0  0  0  0
   -3.6551   12.0930  -10.4106 H   0  0  0  0  0  0  0  0  0  0  0  0
   -3.3293   11.7354  -12.1405 H   0  0  0  0  0  0  0  0  0  0  0  0
   -1.5662   13.3629  -12.1645 H   0  0  0  0  0  0  0  0  0  0  0  0
   -3.1063   14.9918  -12.9976 H   0  0  0  0  0  0  0  0  0  0  0  0
   -3.4165   15.5738  -11.3267 H   0  0  0  0  0  0  0  0  0  0  0  0
   -1.0709   14.6005  -10.2803 H   0  0  0  0  0  0  0  0  0  0  0  0
  1  2  2  0  0  0  0
  1  4  1  0  0  0  0
  1 12  1  0  0  0  0
  2  6  1  0  0  0  0
  3  4  2  0  0  0  0
  3  5  1  0  0  0  0
  5  6  1  0  0  0  0
  5  9  1  0  0  0  0
  6  7  2  0  0  0  0
  7  8  1  0  0  0  0
  7 10  1  0  0  0  0
  8  9  2  0  0  0  0
 10 14  2  3  0  0  0
 11 12  1  0  0  0  0
 11 26  1  0  0  0  0
 11 28  1  0  0  0  0
 12 13  2  0  0  0  0
 14 15  1  0  0  0  0
 14 19  1  0  0  0  0
 15 16  2  0  0  0  0
 16 17  1  0  0  0  0
 17 18  2  0  0  0  0
 17 20  1  0  0  0  0
 18 19  1  0  0  0  0
 20 21  2  0  0  0  0
 20 24  1  0  0  0  0
 21 22  1  0  0  0  0
 22 23  1  0  0  0  0
 22 25  1  0  0  0  0
 23 24  2  0  0  0  0
 26 27  1  0  0  0  0
 27 28  1  0  0  0  0
 27 29  1  0  0  0  0
  2 30  1  0  0  0  0
  3 31  1  0  0  0  0
  4 32  1  0  0  0  0
  5 33  1  0  0  0  0
 10 34  1  0  0  0  0
 15 35  1  0  0  0  0
 16 36  1  0  0  0  0
 18 37  1  0  0  0  0
 19 38  1  0  0  0  0
 19 39  1  0  0  0  0
 21 40  1  0  0  0  0
 24 41  1  0  0  0  0
 25 42  1  0  0  0  0
 25 43  1  0  0  0  0
 25 44  1  0  0  0  0
 26 45  1  0  0  0  0
 26 46  1  0  0  0  0
 27 47  1  0  0  0  0
 28 48  1  0  0  0  0
 28 49  1  0  0  0  0
 29 50  1  0  0  0  0
M  END
> <Name>
35

> <IC50[uM]>
0.004

$$$$
35
  -OEChem-05192314333D
 Structure written by MMmdl.
 50 54  0     0  0  0  0  0  0999 V2000
   -6.3895   12.3678  -12.0373 C   0  0  0  0  0  0  0  0  0  0  0  0
   -6.4824   11.8098  -10.7511 C   0  0  0  0  0  0  0  0  0  0  0  0
   -7.7271   10.5745  -13.0290 C   0  0  0  0  0  0  0  0  0  0  0  0
   -7.0179   11.7711  -13.1287 C   0  0  0  0  0  0  0  0  0  0  0  0
   -7.8170   10.0145  -11.7522 C   0  0  0  0  0  0  0  0  0  0  0  0
   -7.2238   10.6236  -10.6024 C   0  0  0  0  0  0  0  0  0  0  0  0
   -7.6044    9.7508   -9.5065 C   0  0  0  0  0  0  0  0  0  0  0  0
   -8.2828    8.7443   -9.9813 N   0  0  0  0  0  0  0  0  0  0  0  0
   -8.4172    8.8704  -11.2949 N   0  0  0  0  0  0  0  0  0  0  0  0
   -7.3303    9.8854   -8.0203 C   0  0  0  0  0  0  0  0  0  0  0  0
   -4.3418   13.6528  -11.7950 N   0  0  0  0  0  0  0  0  0  0  0  0
   -5.6106   13.6402  -12.2589 C   0  0  0  0  0  0  0  0  0  0  0  0
   -6.1045   14.5768  -12.8828 O   0  0  0  0  0  0  0  0  0  0  0  0
   -5.9605   10.4846   -7.7337 C   0  0  0  0  0  0  0  0  0  0  0  0
   -4.8084    9.7674   -8.0514 C   0  0  0  0  0  0  0  0  0  0  0  0
   -3.5547   10.3189   -7.8020 C   0  0  0  0  0  0  0  0  0  0  0  0
   -3.4471   11.5931   -7.2348 C   0  0  0  0  0  0  0  0  0  0  0  0
   -4.6026   12.3073   -6.9145 C   0  0  0  0  0  0  0  0  0  0  0  0
   -5.8562   11.7556   -7.1614 C   0  0  0  0  0  0  0  0  0  0  0  0
   -2.1021   12.1835   -6.9708 C   0  0  0  0  0  0  0  0  0  0  0  0
   -1.7710   13.4390   -6.4702 C   0  0  0  0  0  0  0  0  0  0  0  0
   -0.4354   13.4950   -6.4103 N   0  0  0  0  0  0  0  0  0  0  0  0
    0.1709   12.4112   -6.8070 N   0  0  0  0  0  0  0  0  0  0  0  0
   -0.8030   11.5943   -7.1763 C   0  0  0  0  0  0  0  0  0  0  0  0
    0.3771   14.6141   -5.9576 C   0  0  0  0  0  0  0  0  0  0  0  0
   -3.4422   12.5360  -11.3947 C   0  0  0  0  0  0  0  0  0  0  0  0
   -2.3230   13.6139  -11.4067 C   0  0  0  0  0  0  0  0  0  0  0  0
   -3.2958   14.6820  -11.9593 C   0  0  0  0  0  0  0  0  0  0  0  0
   -1.7380   13.9356  -10.1565 O   0  0  0  0  0  0  0  0  0  0  0  0
   -6.0005   12.2762   -9.9046 H   0  0  0  0  0  0  0  0  0  0  0  0
   -8.1812   10.1071  -13.8902 H   0  0  0  0  0  0  0  0  0  0  0  0
   -7.7299   12.5156  -13.5144 H   0  0  0  0  0  0  0  0  0  0  0  0
   -6.2295   11.5963  -13.8757 H   0  0  0  0  0  0  0  0  0  0  0  0
   -8.0288    9.5892   -7.2517 H   0  0  0  0  0  0  0  0  0  0  0  0
   -4.8882    8.7841   -8.4909 H   0  0  0  0  0  0  0  0  0  0  0  0
   -2.6627    9.7615   -8.0471 H   0  0  0  0  0  0  0  0  0  0  0  0
   -4.5238   13.2903   -6.4741 H   0  0  0  0  0  0  0  0  0  0  0  0
   -6.3821   12.4502   -7.8329 H   0  0  0  0  0  0  0  0  0  0  0  0
   -6.3800   11.7126   -6.1951 H   0  0  0  0  0  0  0  0  0  0  0  0
   -2.4606   14.2195   -6.1845 H   0  0  0  0  0  0  0  0  0  0  0  0
   -0.6435   10.6063   -7.5823 H   0  0  0  0  0  0  0  0  0  0  0  0
    1.4419   14.3470   -6.0280 H   0  0  0  0  0  0  0  0  0  0  0  0
    0.1769   15.4918   -6.5897 H   0  0  0  0  0  0  0  0  0  0  0  0
    0.1266   14.8499   -4.9128 H   0  0  0  0  0  0  0  0  0  0  0  0
   -3.6551   12.0930  -10.4106 H   0  0  0  0  0  0  0  0  0  0  0  0
   -3.3293   11.7354  -12.1405 H   0  0  0  0  0  0  0  0  0  0  0  0
   -1.5662   13.3629  -12.1645 H   0  0  0  0  0  0  0  0  0  0  0  0
   -3.1063   14.9918  -12.9976 H   0  0  0  0  0  0  0  0  0  0  0  0
   -3.4165   15.5738  -11.3267 H   0  0  0  0  0  0  0  0  0  0  0  0
   -1.0709   14.6005  -10.2803 H   0  0  0  0  0  0  0  0  0  0  0  0
  1  2  2  0  0  0  0
  1  4  1  0  0  0  0
  1 12  1  0  0  0  0
  2  6  1  0  0  0  0
  3  4  1  0  0  0  0
  3  5  2  0  0  0  0
  5  6  1  0  0  0  0
  5  9  1  0  0  0  0
  6  7  2  0  0  0  0
  7  8  1  0  0  0  0
  7 10  1  0  0  0  0
  8  9  2  0  0  0  0
 10 14  2  3  0  0  0
 11 12  1  0  0  0  0
 11 26  1  0  0  0  0
 11 28  1  0  0  0  0
 12 13  2  0  0  0  0
 14 15  1  0  0  0  0
 14 19  1  0  0  0  0
 15 16  2  0  0  0  0
 16 17  1  0  0  0  0
 17 18  2  0  0  0  0
 17 20  1  0  0  0  0
 18 19  1  0  0  0  0
 20 21  2  0  0  0  0
 20 24  1  0  0  0  0
 21 22  1  0  0  0  0
 22 23  1  0  0  0  0
 22 25  1  0  0  0  0
 23 24  2  0  0  0  0
 26 27  1  0  0  0  0
 27 28  1  0  0  0  0
 27 29  1  0  0  0  0
  2 30  1  0  0  0  0
  3 31  1  0  0  0  0
  4 32  1  0  0  0  0
  4 33  1  0  0  0  0
 10 34  1  0  0  0  0
 15 35  1  0  0  0  0
 16 36  1  0  0  0  0
 18 37  1  0  0  0  0
 19 38  1  0  0  0  0
 19 39  1  0  0  0  0
 21 40  1  0  0  0  0
 24 41  1  0  0  0  0
 25 42  1  0  0  0  0
 25 43  1  0  0  0  0
 25 44  1  0  0  0  0
 26 45  1  0  0  0  0
 26 46  1  0  0  0  0
 27 47  1  0  0  0  0
 28 48  1  0  0  0  0
 28 49  1  0  0  0  0
 29 50  1  0  0  0  0
M  END
> <Name>
35

> <IC50[uM]>
0.004

$$$$
35
  -OEChem-05192314333D
 Structure written by MMmdl.
 50 54  0     0  0  0  0  0  0999 V2000
   -6.3895   12.3678  -12.0373 C   0  0  0  0  0  0  0  0  0  0  0  0
   -6.4824   11.8098  -10.7511 C   0  0  0  0  0  0  0  0  0  0  0  0
   -7.7271   10.5745  -13.0290 C   0  0  0  0  0  0  0  0  0  0  0  0
   -7.0179   11.7711  -13.1287 C   0  0  0  0  0  0  0  0  0  0  0  0
   -7.8170   10.0145  -11.7522 C   0  0  0  0  0  0  0  0  0  0  0  0
   -7.2238   10.6236  -10.6024 C   0  0  0  0  0  0  0  0  0  0  0  0
   -7.6044    9.7508   -9.5065 C   0  0  0  0  0  0  0  0  0  0  0  0
   -8.2828    8.7443   -9.9813 N   0  0  0  0  0  0  0  0  0  0  0  0
   -8.4172    8.8704  -11.2949 N   0  0  0  0  0  0  0  0  0  0  0  0
   -7.3303    9.8854   -8.0203 C   0  0  0  0  0  0  0  0  0  0  0  0
   -4.3418   13.6528  -11.7950 N   0  0  0  0  0  0  0  0  0  0  0  0
   -5.6106   13.6402  -12.2589 C   0  0  0  0  0  0  0  0  0  0  0  0
   -6.1045   14.5768  -12.8828 O   0  0  0  0  0  0  0  0  0  0  0  0
   -5.9605   10.4846   -7.7337 C   0  0  0  0  0  0  0  0  0  0  0  0
   -4.8084    9.7674   -8.0514 C   0  0  0  0  0  0  0  0  0  0  0  0
   -3.5547   10.3189   -7.8020 C   0  0  0  0  0  0  0  0  0  0  0  0
   -3.4471   11.5931   -7.2348 C   0  0  0  0  0  0  0  0  0  0  0  0
   -4.6026   12.3073   -6.9145 C   0  0  0  0  0  0  0  0  0  0  0  0
   -5.8562   11.7556   -7.1614 C   0  0  0  0  0  0  0  0  0  0  0  0
   -2.1021   12.1835   -6.9708 C   0  0  0  0  0  0  0  0  0  0  0  0
   -1.7710   13.4390   -6.4702 C   0  0  0  0  0  0  0  0  0  0  0  0
   -0.4354   13.4950   -6.4103 N   0  0  0  0  0  0  0  0  0  0  0  0
    0.1709   12.4112   -6.8070 N   0  0  0  0  0  0  0  0  0  0  0  0
   -0.8030   11.5943   -7.1763 C   0  0  0  0  0  0  0  0  0  0  0  0
    0.3771   14.6141   -5.9576 C   0  0  0  0  0  0  0  0  0  0  0  0
   -3.4422   12.5360  -11.3947 C   0  0  0  0  0  0  0  0  0  0  0  0
   -2.3230   13.6139  -11.4067 C   0  0  0  0  0  0  0  0  0  0  0  0
   -3.2958   14.6820  -11.9593 C   0  0  0  0  0  0  0  0  0  0  0  0
   -1.7380   13.9356  -10.1565 O   0  0  0  0  0  0  0  0  0  0  0  0
   -5.4579   11.6013  -10.4092 H   0  0  0  0  0  0  0  0  0  0  0  0
   -6.9402   12.5668  -10.0974 H   0  0  0  0  0  0  0  0  0  0  0  0
   -8.1812   10.1071  -13.8902 H   0  0  0  0  0  0  0  0  0  0  0  0
   -6.9530   12.2555  -14.0918 H   0  0  0  0  0  0  0  0  0  0  0  0
   -8.0288    9.5892   -7.2517 H   0  0  0  0  0  0  0  0  0  0  0  0
   -4.8882    8.7841   -8.4909 H   0  0  0  0  0  0  0  0  0  0  0  0
   -2.6627    9.7615   -8.0471 H   0  0  0  0  0  0  0  0  0  0  0  0
   -3.4475   12.0413   -8.2394 H   0  0  0  0  0  0  0  0  0  0  0  0
   -4.5238   13.2903   -6.4741 H   0  0  0  0  0  0  0  0  0  0  0  0
   -6.7487   12.3097   -6.9107 H   0  0  0  0  0  0  0  0  0  0  0  0
   -2.4606   14.2195   -6.1845 H   0  0  0  0  0  0  0  0  0  0  0  0
   -0.6435   10.6063   -7.5823 H   0  0  0  0  0  0  0  0  0  0  0  0
    1.4419   14.3470   -6.0280 H   0  0  0  0  0  0  0  0  0  0  0  0
    0.1769   15.4918   -6.5897 H   0  0  0  0  0  0  0  0  0  0  0  0
    0.1266   14.8499   -4.9128 H   0  0  0  0  0  0  0  0  0  0  0  0
   -3.6551   12.0930  -10.4106 H   0  0  0  0  0  0  0  0  0  0  0  0
   -3.3293   11.7354  -12.1405 H   0  0  0  0  0  0  0  0  0  0  0  0
   -1.5662   13.3629  -12.1645 H   0  0  0  0  0  0  0  0  0  0  0  0
   -3.1063   14.9918  -12.9976 H   0  0  0  0  0  0  0  0  0  0  0  0
   -3.4165   15.5738  -11.3267 H   0  0  0  0  0  0  0  0  0  0  0  0
   -1.0709   14.6005  -10.2803 H   0  0  0  0  0  0  0  0  0  0  0  0
  1  2  1  0  0  0  0
  1  4  2  0  0  0  0
  1 12  1  0  0  0  0
  2  6  1  0  0  0  0
  3  4  1  0  0  0  0
  3  5  2  0  0  0  0
  5  6  1  0  0  0  0
  5  9  1  0  0  0  0
  6  7  2  0  0  0  0
  7  8  1  0  0  0  0
  7 10  1  0  0  0  0
  8  9  2  0  0  0  0
 10 14  2  0  0  0  0
 11 12  1  0  0  0  0
 11 26  1  0  0  0  0
 11 28  1  0  0  0  0
 12 13  2  0  0  0  0
 14 15  1  0  0  0  0
 14 19  1  0  0  0  0
 15 16  2  0  0  0  0
 16 17  1  0  0  0  0
 17 18  1  0  0  0  0
 17 20  1  0  0  0  0
 18 19  2  0  0  0  0
 20 21  2  0  0  0  0
 20 24  1  0  0  0  0
 21 22  1  0  0  0  0
 22 23  1  0  0  0  0
 22 25  1  0  0  0  0
 23 24  2  0  0  0  0
 26 27  1  0  0  0  0
 27 28  1  0  0  0  0
 27 29  1  0  0  0  0
  2 30  1  0  0  0  0
  2 31  1  0  0  0  0
  3 32  1  0  0  0  0
  4 33  1  0  0  0  0
 10 34  1  0  0  0  0
 15 35  1  0  0  0  0
 16 36  1  0  0  0  0
 17 37  1  0  0  0  0
 18 38  1  0  0  0  0
 19 39  1  0  0  0  0
 21 40  1  0  0  0  0
 24 41  1  0  0  0  0
 25 42  1  0  0  0  0
 25 43  1  0  0  0  0
 25 44  1  0  0  0  0
 26 45  1  0  0  0  0
 26 46  1  0  0  0  0
 27 47  1  0  0  0  0
 28 48  1  0  0  0  0
 28 49  1  0  0  0  0
 29 50  1  0  0  0  0
M  END
> <Name>
35

> <IC50[uM]>
0.004

$$$$
35
  -OEChem-05192314333D
 Structure written by MMmdl.
 50 54  0     0  0  0  0  0  0999 V2000
   -6.3895   12.3678  -12.0373 C   0  0  0  0  0  0  0  0  0  0  0  0
   -6.4824   11.8098  -10.7511 C   0  0  0  0  0  0  0  0  0  0  0  0
   -7.7271   10.5745  -13.0290 C   0  0  0  0  0  0  0  0  0  0  0  0
   -7.0179   11.7711  -13.1287 C   0  0  0  0  0  0  0  0  0  0  0  0
   -7.8170   10.0145  -11.7522 C   0  0  0  0  0  0  0  0  0  0  0  0
   -7.2238   10.6236  -10.6024 C   0  0  0  0  0  0  0  0  0  0  0  0
   -7.6044    9.7508   -9.5065 C   0  0  0  0  0  0  0  0  0  0  0  0
   -8.2828    8.7443   -9.9813 N   0  0  0  0  0  0  0  0  0  0  0  0
   -8.4172    8.8704  -11.2949 N   0  0  0  0  0  0  0  0  0  0  0  0
   -7.3303    9.8854   -8.0203 C   0  0  0  0  0  0  0  0  0  0  0  0
   -4.3418   13.6528  -11.7950 N   0  0  0  0  0  0  0  0  0  0  0  0
   -5.6106   13.6402  -12.2589 C   0  0  0  0  0  0  0  0  0  0  0  0
   -6.1045   14.5768  -12.8828 O   0  0  0  0  0  0  0  0  0  0  0  0
   -5.9605   10.4846   -7.7337 C   0  0  0  0  0  0  0  0  0  0  0  0
   -4.8084    9.7674   -8.0514 C   0  0  0  0  0  0  0  0  0  0  0  0
   -3.5547   10.3189   -7.8020 C   0  0  0  0  0  0  0  0  0  0  0  0
   -3.4471   11.5931   -7.2348 C   0  0  0  0  0  0  0  0  0  0  0  0
   -4.6026   12.3073   -6.9145 C   0  0  0  0  0  0  0  0  0  0  0  0
   -5.8562   11.7556   -7.1614 C   0  0  0  0  0  0  0  0  0  0  0  0
   -2.1021   12.1835   -6.9708 C   0  0  0  0  0  0  0  0  0  0  0  0
   -1.7710   13.4390   -6.4702 C   0  0  0  0  0  0  0  0  0  0  0  0
   -0.4354   13.4950   -6.4103 N   0  0  0  0  0  0  0  0  0  0  0  0
    0.1709   12.4112   -6.8070 N   0  0  0  0  0  0  0  0  0  0  0  0
   -0.8030   11.5943   -7.1763 C   0  0  0  0  0  0  0  0  0  0  0  0
    0.3771   14.6141   -5.9576 C   0  0  0  0  0  0  0  0  0  0  0  0
   -3.4422   12.5360  -11.3947 C   0  0  0  0  0  0  0  0  0  0  0  0
   -2.3230   13.6139  -11.4067 C   0  0  0  0  0  0  0  0  0  0  0  0
   -3.2958   14.6820  -11.9593 C   0  0  0  0  0  0  0  0  0  0  0  0
   -1.7380   13.9356  -10.1565 O   0  0  0  0  0  0  0  0  0  0  0  0
   -5.4579   11.6013  -10.4092 H   0  0  0  0  0  0  0  0  0  0  0  0
   -6.9402   12.5668  -10.0974 H   0  0  0  0  0  0  0  0  0  0  0  0
   -8.1812   10.1071  -13.8902 H   0  0  0  0  0  0  0  0  0  0  0  0
   -6.9530   12.2555  -14.0918 H   0  0  0  0  0  0  0  0  0  0  0  0
   -8.0288    9.5892   -7.2517 H   0  0  0  0  0  0  0  0  0  0  0  0
   -4.8882    8.7841   -8.4909 H   0  0  0  0  0  0  0  0  0  0  0  0
   -2.6627    9.7615   -8.0471 H   0  0  0  0  0  0  0  0  0  0  0  0
   -4.5238   13.2903   -6.4741 H   0  0  0  0  0  0  0  0  0  0  0  0
   -6.3821   12.4502   -7.8329 H   0  0  0  0  0  0  0  0  0  0  0  0
   -6.3800   11.7126   -6.1951 H   0  0  0  0  0  0  0  0  0  0  0  0
   -2.4606   14.2195   -6.1845 H   0  0  0  0  0  0  0  0  0  0  0  0
   -0.6435   10.6063   -7.5823 H   0  0  0  0  0  0  0  0  0  0  0  0
    1.4419   14.3470   -6.0280 H   0  0  0  0  0  0  0  0  0  0  0  0
    0.1769   15.4918   -6.5897 H   0  0  0  0  0  0  0  0  0  0  0  0
    0.1266   14.8499   -4.9128 H   0  0  0  0  0  0  0  0  0  0  0  0
   -3.6551   12.0930  -10.4106 H   0  0  0  0  0  0  0  0  0  0  0  0
   -3.3293   11.7354  -12.1405 H   0  0  0  0  0  0  0  0  0  0  0  0
   -1.5662   13.3629  -12.1645 H   0  0  0  0  0  0  0  0  0  0  0  0
   -3.1063   14.9918  -12.9976 H   0  0  0  0  0  0  0  0  0  0  0  0
   -3.4165   15.5738  -11.3267 H   0  0  0  0  0  0  0  0  0  0  0  0
   -1.0709   14.6005  -10.2803 H   0  0  0  0  0  0  0  0  0  0  0  0
  1  2  1  0  0  0  0
  1  4  2  0  0  0  0
  1 12  1  0  0  0  0
  2  6  1  0  0  0  0
  3  4  1  0  0  0  0
  3  5  2  0  0  0  0
  5  6  1  0  0  0  0
  5  9  1  0  0  0  0
  6  7  2  0  0  0  0
  7  8  1  0  0  0  0
  7 10  1  0  0  0  0
  8  9  2  0  0  0  0
 10 14  2  3  0  0  0
 11 12  1  0  0  0  0
 11 26  1  0  0  0  0
 11 28  1  0  0  0  0
 12 13  2  0  0  0  0
 14 15  1  0  0  0  0
 14 19  1  0  0  0  0
 15 16  2  0  0  0  0
 16 17  1  0  0  0  0
 17 18  2  0  0  0  0
 17 20  1  0  0  0  0
 18 19  1  0  0  0  0
 20 21  2  0  0  0  0
 20 24  1  0  0  0  0
 21 22  1  0  0  0  0
 22 23  1  0  0  0  0
 22 25  1  0  0  0  0
 23 24  2  0  0  0  0
 26 27  1  0  0  0  0
 27 28  1  0  0  0  0
 27 29  1  0  0  0  0
  2 30  1  0  0  0  0
  2 31  1  0  0  0  0
  3 32  1  0  0  0  0
  4 33  1  0  0  0  0
 10 34  1  0  0  0  0
 15 35  1  0  0  0  0
 16 36  1  0  0  0  0
 18 37  1  0  0  0  0
 19 38  1  0  0  0  0
 19 39  1  0  0  0  0
 21 40  1  0  0  0  0
 24 41  1  0  0  0  0
 25 42  1  0  0  0  0
 25 43  1  0  0  0  0
 25 44  1  0  0  0  0
 26 45  1  0  0  0  0
 26 46  1  0  0  0  0
 27 47  1  0  0  0  0
 28 48  1  0  0  0  0
 28 49  1  0  0  0  0
 29 50  1  0  0  0  0
M  END
> <Name>
35

> <IC50[uM]>
0.004

$$$$
35
  -OEChem-05192314333D
 Structure written by MMmdl.
 50 54  0     0  0  0  0  0  0999 V2000
   -6.3895   12.3678  -12.0373 C   0  0  0  0  0  0  0  0  0  0  0  0
   -6.4824   11.8098  -10.7511 C   0  0  0  0  0  0  0  0  0  0  0  0
   -7.7271   10.5745  -13.0290 C   0  0  0  0  0  0  0  0  0  0  0  0
   -7.0179   11.7711  -13.1287 C   0  0  0  0  0  0  0  0  0  0  0  0
   -7.8170   10.0145  -11.7522 C   0  0  0  0  0  0  0  0  0  0  0  0
   -7.2238   10.6236  -10.6024 C   0  0  0  0  0  0  0  0  0  0  0  0
   -7.6044    9.7508   -9.5065 C   0  0  0  0  0  0  0  0  0  0  0  0
   -8.2828    8.7443   -9.9813 N   0  0  0  0  0  0  0  0  0  0  0  0
   -8.4172    8.8704  -11.2949 N   0  0  0  0  0  0  0  0  0  0  0  0
   -7.3303    9.8854   -8.0203 C   0  0  0  0  0  0  0  0  0  0  0  0
   -4.3418   13.6528  -11.7950 N   0  0  0  0  0  0  0  0  0  0  0  0
   -5.6106   13.6402  -12.2589 C   0  0  0  0  0  0  0  0  0  0  0  0
   -6.1045   14.5768  -12.8828 O   0  0  0  0  0  0  0  0  0  0  0  0
   -5.9605   10.4846   -7.7337 C   0  0  0  0  0  0  0  0  0  0  0  0
   -4.8084    9.7674   -8.0514 C   0  0  0  0  0  0  0  0  0  0  0  0
   -3.5547   10.3189   -7.8020 C   0  0  0  0  0  0  0  0  0  0  0  0
   -3.4471   11.5931   -7.2348 C   0  0  0  0  0  0  0  0  0  0  0  0
   -4.6026   12.3073   -6.9145 C   0  0  0  0  0  0  0  0  0  0  0  0
   -5.8562   11.7556   -7.1614 C   0  0  0  0  0  0  0  0  0  0  0  0
   -2.1021   12.1835   -6.9708 C   0  0  0  0  0  0  0  0  0  0  0  0
   -1.7710   13.4390   -6.4702 C   0  0  0  0  0  0  0  0  0  0  0  0
   -0.4354   13.4950   -6.4103 N   0  0  0  0  0  0  0  0  0  0  0  0
    0.1709   12.4112   -6.8070 N   0  0  0  0  0  0  0  0  0  0  0  0
   -0.8030   11.5943   -7.1763 C   0  0  0  0  0  0  0  0  0  0  0  0
    0.3771   14.6141   -5.9576 C   0  0  0  0  0  0  0  0  0  0  0  0
   -3.4422   12.5360  -11.3947 C   0  0  0  0  0  0  0  0  0  0  0  0
   -2.3230   13.6139  -11.4067 C   0  0  0  0  0  0  0  0  0  0  0  0
   -3.2958   14.6820  -11.9593 C   0  0  0  0  0  0  0  0  0  0  0  0
   -1.7380   13.9356  -10.1565 O   0  0  0  0  0  0  0  0  0  0  0  0
   -6.0005   12.2762   -9.9046 H   0  0  0  0  0  0  0  0  0  0  0  0
   -8.1812   10.1071  -13.8902 H   0  0  0  0  0  0  0  0  0  0  0  0
   -6.9530   12.2555  -14.0918 H   0  0  0  0  0  0  0  0  0  0  0  0
   -8.6477    7.9894   -9.4364 H   0  0  0  0  0  0  0  0  0  0  0  0
   -8.0288    9.5892   -7.2517 H   0  0  0  0  0  0  0  0  0  0  0  0
   -5.4809   15.2921  -12.9272 H   0  0  0  0  0  0  0  0  0  0  0  0
   -4.8882    8.7841   -8.4909 H   0  0  0  0  0  0  0  0  0  0  0  0
   -2.6627    9.7615   -8.0471 H   0  0  0  0  0  0  0  0  0  0  0  0
   -4.5238   13.2903   -6.4741 H   0  0  0  0  0  0  0  0  0  0  0  0
   -6.7487   12.3097   -6.9107 H   0  0  0  0  0  0  0  0  0  0  0  0
   -2.4606   14.2195   -6.1845 H   0  0  0  0  0  0  0  0  0  0  0  0
   -0.6435   10.6063   -7.5823 H   0  0  0  0  0  0  0  0  0  0  0  0
    1.4419   14.3470   -6.0280 H   0  0  0  0  0  0  0  0  0  0  0  0
    0.1769   15.4918   -6.5897 H   0  0  0  0  0  0  0  0  0  0  0  0
    0.1266   14.8499   -4.9128 H   0  0  0  0  0  0  0  0  0  0  0  0
   -3.6551   12.0930  -10.4106 H   0  0  0  0  0  0  0  0  0  0  0  0
   -3.3293   11.7354  -12.1405 H   0  0  0  0  0  0  0  0  0  0  0  0
   -1.5662   13.3629  -12.1645 H   0  0  0  0  0  0  0  0  0  0  0  0
   -3.1063   14.9918  -12.9976 H   0  0  0  0  0  0  0  0  0  0  0  0
   -3.4165   15.5738  -11.3267 H   0  0  0  0  0  0  0  0  0  0  0  0
   -1.0709   14.6005  -10.2803 H   0  0  0  0  0  0  0  0  0  0  0  0
  1  2  1  0  0  0  0
  1  4  1  0  0  0  0
  1 12  2  3  0  0  0
  2  6  2  0  0  0  0
  3  4  2  0  0  0  0
  3  5  1  0  0  0  0
  5  6  1  0  0  0  0
  5  9  2  0  0  0  0
  6  7  1  0  0  0  0
  7  8  1  0  0  0  0
  7 10  2  3  0  0  0
  8  9  1  0  0  0  0
 10 14  1  0  0  0  0
 11 12  1  0  0  0  0
 11 26  1  0  0  0  0
 11 28  1  0  0  0  0
 12 13  1  0  0  0  0
 14 15  2  0  0  0  0
 14 19  1  0  0  0  0
 15 16  1  0  0  0  0
 16 17  2  0  0  0  0
 17 18  1  0  0  0  0
 17 20  1  0  0  0  0
 18 19  2  0  0  0  0
 20 21  2  0  0  0  0
 20 24  1  0  0  0  0
 21 22  1  0  0  0  0
 22 23  1  0  0  0  0
 22 25  1  0  0  0  0
 23 24  2  0  0  0  0
 26 27  1  0  0  0  0
 27 28  1  0  0  0  0
 27 29  1  0  0  0  0
  2 30  1  0  0  0  0
  3 31  1  0  0  0  0
  4 32  1  0  0  0  0
  8 33  1  0  0  0  0
 10 34  1  0  0  0  0
 13 35  1  0  0  0  0
 15 36  1  0  0  0  0
 16 37  1  0  0  0  0
 18 38  1  0  0  0  0
 19 39  1  0  0  0  0
 21 40  1  0  0  0  0
 24 41  1  0  0  0  0
 25 42  1  0  0  0  0
 25 43  1  0  0  0  0
 25 44  1  0  0  0  0
 26 45  1  0  0  0  0
 26 46  1  0  0  0  0
 27 47  1  0  0  0  0
 28 48  1  0  0  0  0
 28 49  1  0  0  0  0
 29 50  1  0  0  0  0
M  END
> <Name>
35

> <IC50[uM]>
0.004

$$$$
35
  -OEChem-05192314333D
 Structure written by MMmdl.
 50 54  0     1  0  0  0  0  0999 V2000
   -6.3895   12.3678  -12.0373 C   0  0  0  0  0  0  0  0  0  0  0  0
   -6.4824   11.8098  -10.7511 C   0  0  0  0  0  0  0  0  0  0  0  0
   -7.7271   10.5745  -13.0290 C   0  0  0  0  0  0  0  0  0  0  0  0
   -7.0179   11.7711  -13.1287 C   0  0  0  0  0  0  0  0  0  0  0  0
   -7.8170   10.0145  -11.7522 C   0  0  0  0  0  0  0  0  0  0  0  0
   -7.2238   10.6236  -10.6024 C   0  0  0  0  0  0  0  0  0  0  0  0
   -7.6044    9.7508   -9.5065 C   0  0  0  0  0  0  0  0  0  0  0  0
   -8.2828    8.7443   -9.9813 N   0  0  0  0  0  0  0  0  0  0  0  0
   -8.4172    8.8704  -11.2949 N   0  0  0  0  0  0  0  0  0  0  0  0
   -7.3303    9.8854   -8.0203 C   0  0  0  0  0  0  0  0  0  0  0  0
   -4.3418   13.6528  -11.7950 N   0  0  0  0  0  0  0  0  0  0  0  0
   -5.6106   13.6402  -12.2589 C   0  0  3  0  0  0  0  0  0  0  0  0
   -6.1045   14.5768  -12.8828 O   0  0  0  0  0  0  0  0  0  0  0  0
   -5.9605   10.4846   -7.7337 C   0  0  0  0  0  0  0  0  0  0  0  0
   -4.8084    9.7674   -8.0514 C   0  0  0  0  0  0  0  0  0  0  0  0
   -3.5547   10.3189   -7.8020 C   0  0  0  0  0  0  0  0  0  0  0  0
   -3.4471   11.5931   -7.2348 C   0  0  0  0  0  0  0  0  0  0  0  0
   -4.6026   12.3073   -6.9145 C   0  0  0  0  0  0  0  0  0  0  0  0
   -5.8562   11.7556   -7.1614 C   0  0  0  0  0  0  0  0  0  0  0  0
   -2.1021   12.1835   -6.9708 C   0  0  0  0  0  0  0  0  0  0  0  0
   -1.7710   13.4390   -6.4702 C   0  0  0  0  0  0  0  0  0  0  0  0
   -0.4354   13.4950   -6.4103 N   0  0  0  0  0  0  0  0  0  0  0  0
    0.1709   12.4112   -6.8070 N   0  0  0  0  0  0  0  0  0  0  0  0
   -0.8030   11.5943   -7.1763 C   0  0  0  0  0  0  0  0  0  0  0  0
    0.3771   14.6141   -5.9576 C   0  0  0  0  0  0  0  0  0  0  0  0
   -3.4422   12.5360  -11.3947 C   0  0  0  0  0  0  0  0  0  0  0  0
   -2.3230   13.6139  -11.4067 C   0  0  0  0  0  0  0  0  0  0  0  0
   -3.2958   14.6820  -11.9593 C   0  0  0  0  0  0  0  0  0  0  0  0
   -1.7380   13.9356  -10.1565 O   0  0  0  0  0  0  0  0  0  0  0  0
   -6.0005   12.2762   -9.9046 H   0  0  0  0  0  0  0  0  0  0  0  0
   -8.1812   10.1071  -13.8902 H   0  0  0  0  0  0  0  0  0  0  0  0
   -6.9530   12.2555  -14.0918 H   0  0  0  0  0  0  0  0  0  0  0  0
   -8.0288    9.5892   -7.2517 H   0  0  0  0  0  0  0  0  0  0  0  0
   -5.9813   14.0518  -11.3086 H   0  0  0  0  0  0  0  0  0  0  0  0
   -5.4809   15.2921  -12.9272 H   0  0  0  0  0  0  0  0  0  0  0  0
   -4.8882    8.7841   -8.4909 H   0  0  0  0  0  0  0  0  0  0  0  0
   -2.6627    9.7615   -8.0471 H   0  0  0  0  0  0  0  0  0  0  0  0
   -4.5238   13.2903   -6.4741 H   0  0  0  0  0  0  0  0  0  0  0  0
   -6.7487   12.3097   -6.9107 H   0  0  0  0  0  0  0  0  0  0  0  0
   -2.4606   14.2195   -6.1845 H   0  0  0  0  0  0  0  0  0  0  0  0
   -0.6435   10.6063   -7.5823 H   0  0  0  0  0  0  0  0  0  0  0  0
    1.4419   14.3470   -6.0280 H   0  0  0  0  0  0  0  0  0  0  0  0
    0.1769   15.4918   -6.5897 H   0  0  0  0  0  0  0  0  0  0  0  0
    0.1266   14.8499   -4.9128 H   0  0  0  0  0  0  0  0  0  0  0  0
   -3.6551   12.0930  -10.4106 H   0  0  0  0  0  0  0  0  0  0  0  0
   -3.3293   11.7354  -12.1405 H   0  0  0  0  0  0  0  0  0  0  0  0
   -1.5662   13.3629  -12.1645 H   0  0  0  0  0  0  0  0  0  0  0  0
   -3.1063   14.9918  -12.9976 H   0  0  0  0  0  0  0  0  0  0  0  0
   -3.4165   15.5738  -11.3267 H   0  0  0  0  0  0  0  0  0  0  0  0
   -1.0709   14.6005  -10.2803 H   0  0  0  0  0  0  0  0  0  0  0  0
  1  2  2  0  0  0  0
  1  4  1  0  0  0  0
  1 12  1  0  0  0  0
  2  6  1  0  0  0  0
  3  4  2  0  0  0  0
  3  5  1  0  0  0  0
  5  6  2  0  0  0  0
  5  9  1  0  0  0  0
  6  7  1  0  0  0  0
  7  8  1  0  0  0  0
  7 10  2  3  0  0  0
  8  9  2  0  0  0  0
 10 14  1  0  0  0  0
 11 12  1  0  0  0  0
 11 26  1  0  0  0  0
 11 28  1  0  0  0  0
 12 13  1  0  0  0  0
 14 15  2  0  0  0  0
 14 19  1  0  0  0  0
 15 16  1  0  0  0  0
 16 17  2  0  0  0  0
 17 18  1  0  0  0  0
 17 20  1  0  0  0  0
 18 19  2  0  0  0  0
 20 21  2  0  0  0  0
 20 24  1  0  0  0  0
 21 22  1  0  0  0  0
 22 23  1  0  0  0  0
 22 25  1  0  0  0  0
 23 24  2  0  0  0  0
 26 27  1  0  0  0  0
 27 28  1  0  0  0  0
 27 29  1  0  0  0  0
  2 30  1  0  0  0  0
  3 31  1  0  0  0  0
  4 32  1  0  0  0  0
 10 33  1  0  0  0  0
 12 34  1  0  0  0  0
 13 35  1  0  0  0  0
 15 36  1  0  0  0  0
 16 37  1  0  0  0  0
 18 38  1  0  0  0  0
 19 39  1  0  0  0  0
 21 40  1  0  0  0  0
 24 41  1  0  0  0  0
 25 42  1  0  0  0  0
 25 43  1  0  0  0  0
 25 44  1  0  0  0  0
 26 45  1  0  0  0  0
 26 46  1  0  0  0  0
 27 47  1  0  0  0  0
 28 48  1  0  0  0  0
 28 49  1  0  0  0  0
 29 50  1  0  0  0  0
M  END
> <Name>
35

> <IC50[uM]>
0.004

$$$$
35
  -OEChem-05192314333D
 Structure written by MMmdl.
 50 54  0     0  0  0  0  0  0999 V2000
   -6.3895   12.3678  -12.0373 C   0  0  0  0  0  0  0  0  0  0  0  0
   -6.4824   11.8098  -10.7511 C   0  0  0  0  0  0  0  0  0  0  0  0
   -7.7271   10.5745  -13.0290 C   0  0  0  0  0  0  0  0  0  0  0  0
   -7.0179   11.7711  -13.1287 C   0  0  0  0  0  0  0  0  0  0  0  0
   -7.8170   10.0145  -11.7522 C   0  0  0  0  0  0  0  0  0  0  0  0
   -7.2238   10.6236  -10.6024 C   0  0  0  0  0  0  0  0  0  0  0  0
   -7.6044    9.7508   -9.5065 C   0  0  0  0  0  0  0  0  0  0  0  0
   -8.2828    8.7443   -9.9813 N   0  0  0  0  0  0  0  0  0  0  0  0
   -8.4172    8.8704  -11.2949 N   0  0  0  0  0  0  0  0  0  0  0  0
   -7.3303    9.8854   -8.0203 C   0  0  0  0  0  0  0  0  0  0  0  0
   -4.3418   13.6528  -11.7950 N   0  0  0  0  0  0  0  0  0  0  0  0
   -5.6106   13.6402  -12.2589 C   0  0  0  0  0  0  0  0  0  0  0  0
   -6.1045   14.5768  -12.8828 O   0  0  0  0  0  0  0  0  0  0  0  0
   -5.9605   10.4846   -7.7337 C   0  0  0  0  0  0  0  0  0  0  0  0
   -4.8084    9.7674   -8.0514 C   0  0  0  0  0  0  0  0  0  0  0  0
   -3.5547   10.3189   -7.8020 C   0  0  0  0  0  0  0  0  0  0  0  0
   -3.4471   11.5931   -7.2348 C   0  0  0  0  0  0  0  0  0  0  0  0
   -4.6026   12.3073   -6.9145 C   0  0  0  0  0  0  0  0  0  0  0  0
   -5.8562   11.7556   -7.1614 C   0  0  0  0  0  0  0  0  0  0  0  0
   -2.1021   12.1835   -6.9708 C   0  0  0  0  0  0  0  0  0  0  0  0
   -1.7710   13.4390   -6.4702 C   0  0  0  0  0  0  0  0  0  0  0  0
   -0.4354   13.4950   -6.4103 N   0  0  0  0  0  0  0  0  0  0  0  0
    0.1709   12.4112   -6.8070 N   0  0  0  0  0  0  0  0  0  0  0  0
   -0.8030   11.5943   -7.1763 C   0  0  0  0  0  0  0  0  0  0  0  0
    0.3771   14.6141   -5.9576 C   0  0  0  0  0  0  0  0  0  0  0  0
   -3.4422   12.5360  -11.3947 C   0  0  0  0  0  0  0  0  0  0  0  0
   -2.3230   13.6139  -11.4067 C   0  0  0  0  0  0  0  0  0  0  0  0
   -3.2958   14.6820  -11.9593 C   0  0  0  0  0  0  0  0  0  0  0  0
   -1.7380   13.9356  -10.1565 O   0  0  0  0  0  0  0  0  0  0  0  0
   -6.0005   12.2762   -9.9046 H   0  0  0  0  0  0  0  0  0  0  0  0
   -8.1812   10.1071  -13.8902 H   0  0  0  0  0  0  0  0  0  0  0  0
   -6.9530   12.2555  -14.0918 H   0  0  0  0  0  0  0  0  0  0  0  0
   -8.0995   10.5347   -7.5768 H   0  0  0  0  0  0  0  0  0  0  0  0
   -7.3826    8.8878   -7.5599 H   0  0  0  0  0  0  0  0  0  0  0  0
   -5.4809   15.2921  -12.9272 H   0  0  0  0  0  0  0  0  0  0  0  0
   -4.8882    8.7841   -8.4909 H   0  0  0  0  0  0  0  0  0  0  0  0
   -2.6627    9.7615   -8.0471 H   0  0  0  0  0  0  0  0  0  0  0  0
   -4.5238   13.2903   -6.4741 H   0  0  0  0  0  0  0  0  0  0  0  0
   -6.7487   12.3097   -6.9107 H   0  0  0  0  0  0  0  0  0  0  0  0
   -2.4606   14.2195   -6.1845 H   0  0  0  0  0  0  0  0  0  0  0  0
   -0.6435   10.6063   -7.5823 H   0  0  0  0  0  0  0  0  0  0  0  0
    1.4419   14.3470   -6.0280 H   0  0  0  0  0  0  0  0  0  0  0  0
    0.1769   15.4918   -6.5897 H   0  0  0  0  0  0  0  0  0  0  0  0
    0.1266   14.8499   -4.9128 H   0  0  0  0  0  0  0  0  0  0  0  0
   -3.6551   12.0930  -10.4106 H   0  0  0  0  0  0  0  0  0  0  0  0
   -3.3293   11.7354  -12.1405 H   0  0  0  0  0  0  0  0  0  0  0  0
   -1.5662   13.3629  -12.1645 H   0  0  0  0  0  0  0  0  0  0  0  0
   -3.1063   14.9918  -12.9976 H   0  0  0  0  0  0  0  0  0  0  0  0
   -3.4165   15.5738  -11.3267 H   0  0  0  0  0  0  0  0  0  0  0  0
   -1.0709   14.6005  -10.2803 H   0  0  0  0  0  0  0  0  0  0  0  0
  1  2  1  0  0  0  0
  1  4  1  0  0  0  0
  1 12  2  3  0  0  0
  2  6  2  0  0  0  0
  3  4  2  0  0  0  0
  3  5  1  0  0  0  0
  5  6  1  0  0  0  0
  5  9  2  0  0  0  0
  6  7  1  0  0  0  0
  7  8  2  0  0  0  0
  7 10  1  0  0  0  0
  8  9  1  0  0  0  0
 10 14  1  0  0  0  0
 11 12  1  0  0  0  0
 11 26  1  0  0  0  0
 11 28  1  0  0  0  0
 12 13  1  0  0  0  0
 14 15  2  0  0  0  0
 14 19  1  0  0  0  0
 15 16  1  0  0  0  0
 16 17  2  0  0  0  0
 17 18  1  0  0  0  0
 17 20  1  0  0  0  0
 18 19  2  0  0  0  0
 20 21  2  0  0  0  0
 20 24  1  0  0  0  0
 21 22  1  0  0  0  0
 22 23  1  0  0  0  0
 22 25  1  0  0  0  0
 23 24  2  0  0  0  0
 26 27  1  0  0  0  0
 27 28  1  0  0  0  0
 27 29  1  0  0  0  0
  2 30  1  0  0  0  0
  3 31  1  0  0  0  0
  4 32  1  0  0  0  0
 10 33  1  0  0  0  0
 10 34  1  0  0  0  0
 13 35  1  0  0  0  0
 15 36  1  0  0  0  0
 16 37  1  0  0  0  0
 18 38  1  0  0  0  0
 19 39  1  0  0  0  0
 21 40  1  0  0  0  0
 24 41  1  0  0  0  0
 25 42  1  0  0  0  0
 25 43  1  0  0  0  0
 25 44  1  0  0  0  0
 26 45  1  0  0  0  0
 26 46  1  0  0  0  0
 27 47  1  0  0  0  0
 28 48  1  0  0  0  0
 28 49  1  0  0  0  0
 29 50  1  0  0  0  0
M  END
> <Name>
35

> <IC50[uM]>
0.004

$$$$
35
  -OEChem-05192314333D
 Structure written by MMmdl.
 50 54  0     1  0  0  0  0  0999 V2000
   -6.3895   12.3678  -12.0373 C   0  0  0  0  0  0  0  0  0  0  0  0
   -6.4824   11.8098  -10.7511 C   0  0  0  0  0  0  0  0  0  0  0  0
   -7.7271   10.5745  -13.0290 C   0  0  0  0  0  0  0  0  0  0  0  0
   -7.0179   11.7711  -13.1287 C   0  0  0  0  0  0  0  0  0  0  0  0
   -7.8170   10.0145  -11.7522 C   0  0  0  0  0  0  0  0  0  0  0  0
   -7.2238   10.6236  -10.6024 C   0  0  0  0  0  0  0  0  0  0  0  0
   -7.6044    9.7508   -9.5065 C   0  0  0  0  0  0  0  0  0  0  0  0
   -8.2828    8.7443   -9.9813 N   0  0  0  0  0  0  0  0  0  0  0  0
   -8.4172    8.8704  -11.2949 N   0  0  0  0  0  0  0  0  0  0  0  0
   -7.3303    9.8854   -8.0203 C   0  0  0  0  0  0  0  0  0  0  0  0
   -4.3418   13.6528  -11.7950 N   0  0  0  0  0  0  0  0  0  0  0  0
   -5.6106   13.6402  -12.2589 C   0  0  0  0  0  0  0  0  0  0  0  0
   -6.1045   14.5768  -12.8828 O   0  0  0  0  0  0  0  0  0  0  0  0
   -5.9605   10.4846   -7.7337 C   0  0  0  0  0  0  0  0  0  0  0  0
   -4.8084    9.7674   -8.0514 C   0  0  0  0  0  0  0  0  0  0  0  0
   -3.5547   10.3189   -7.8020 C   0  0  0  0  0  0  0  0  0  0  0  0
   -3.4471   11.5931   -7.2348 C   0  0  0  0  0  0  0  0  0  0  0  0
   -4.6026   12.3073   -6.9145 C   0  0  0  0  0  0  0  0  0  0  0  0
   -5.8562   11.7556   -7.1614 C   0  0  0  0  0  0  0  0  0  0  0  0
   -2.1021   12.1835   -6.9708 C   0  0  0  0  0  0  0  0  0  0  0  0
   -1.7710   13.4390   -6.4702 C   0  0  0  0  0  0  0  0  0  0  0  0
   -0.4354   13.4950   -6.4103 N   0  0  3  0  0  0  0  0  0  0  0  0
    0.1709   12.4112   -6.8070 N   0  0  0  0  0  0  0  0  0  0  0  0
   -0.8030   11.5943   -7.1763 C   0  0  0  0  0  0  0  0  0  0  0  0
    0.3771   14.6141   -5.9576 C   0  0  0  0  0  0  0  0  0  0  0  0
   -3.4422   12.5360  -11.3947 C   0  0  0  0  0  0  0  0  0  0  0  0
   -2.3230   13.6139  -11.4067 C   0  0  0  0  0  0  0  0  0  0  0  0
   -3.2958   14.6820  -11.9593 C   0  0  0  0  0  0  0  0  0  0  0  0
   -1.7380   13.9356  -10.1565 O   0  0  0  0  0  0  0  0  0  0  0  0
   -6.0005   12.2762   -9.9046 H   0  0  0  0  0  0  0  0  0  0  0  0
   -8.1812   10.1071  -13.8902 H   0  0  0  0  0  0  0  0  0  0  0  0
   -6.9530   12.2555  -14.0918 H   0  0  0  0  0  0  0  0  0  0  0  0
   -8.0288    9.5892   -7.2517 H   0  0  0  0  0  0  0  0  0  0  0  0
   -5.4809   15.2921  -12.9272 H   0  0  0  0  0  0  0  0  0  0  0  0
   -4.8882    8.7841   -8.4909 H   0  0  0  0  0  0  0  0  0  0  0  0
   -2.6627    9.7615   -8.0471 H   0  0  0  0  0  0  0  0  0  0  0  0
   -4.5238   13.2903   -6.4741 H   0  0  0  0  0  0  0  0  0  0  0  0
   -6.7487   12.3097   -6.9107 H   0  0  0  0  0  0  0  0  0  0  0  0
   -2.1527   14.2251   -7.1383 H   0  0  0  0  0  0  0  0  0  0  0  0
   -2.2003   13.5709   -5.4661 H   0  0  0  0  0  0  0  0  0  0  0  0
   -0.6435   10.6063   -7.5823 H   0  0  0  0  0  0  0  0  0  0  0  0
    1.4419   14.3470   -6.0280 H   0  0  0  0  0  0  0  0  0  0  0  0
    0.1769   15.4918   -6.5897 H   0  0  0  0  0  0  0  0  0  0  0  0
    0.1266   14.8499   -4.9128 H   0  0  0  0  0  0  0  0  0  0  0  0
   -3.6551   12.0930  -10.4106 H   0  0  0  0  0  0  0  0  0  0  0  0
   -3.3293   11.7354  -12.1405 H   0  0  0  0  0  0  0  0  0  0  0  0
   -1.5662   13.3629  -12.1645 H   0  0  0  0  0  0  0  0  0  0  0  0
   -3.1063   14.9918  -12.9976 H   0  0  0  0  0  0  0  0  0  0  0  0
   -3.4165   15.5738  -11.3267 H   0  0  0  0  0  0  0  0  0  0  0  0
   -1.0709   14.6005  -10.2803 H   0  0  0  0  0  0  0  0  0  0  0  0
  1  2  1  0  0  0  0
  1  4  1  0  0  0  0
  1 12  2  3  0  0  0
  2  6  2  0  0  0  0
  3  4  2  0  0  0  0
  3  5  1  0  0  0  0
  5  6  1  0  0  0  0
  5  9  2  0  0  0  0
  6  7  1  0  0  0  0
  7  8  2  0  0  0  0
  7 10  1  0  0  0  0
  8  9  1  0  0  0  0
 10 14  2  0  0  0  0
 11 12  1  0  0  0  0
 11 26  1  0  0  0  0
 11 28  1  0  0  0  0
 12 13  1  0  0  0  0
 14 15  1  0  0  0  0
 14 19  1  0  0  0  0
 15 16  2  0  0  0  0
 16 17  1  0  0  0  0
 17 18  1  0  0  0  0
 17 20  2  0  0  0  0
 18 19  2  0  0  0  0
 20 21  1  0  0  0  0
 20 24  1  0  0  0  0
 21 22  1  0  0  0  0
 22 23  1  0  0  0  0
 22 25  1  0  0  0  0
 23 24  2  0  0  0  0
 26 27  1  0  0  0  0
 27 28  1  0  0  0  0
 27 29  1  0  0  0  0
  2 30  1  0  0  0  0
  3 31  1  0  0  0  0
  4 32  1  0  0  0  0
 10 33  1  0  0  0  0
 13 34  1  0  0  0  0
 15 35  1  0  0  0  0
 16 36  1  0  0  0  0
 18 37  1  0  0  0  0
 19 38  1  0  0  0  0
 21 39  1  0  0  0  0
 21 40  1  0  0  0  0
 24 41  1  0  0  0  0
 25 42  1  0  0  0  0
 25 43  1  0  0  0  0
 25 44  1  0  0  0  0
 26 45  1  0  0  0  0
 26 46  1  0  0  0  0
 27 47  1  0  0  0  0
 28 48  1  0  0  0  0
 28 49  1  0  0  0  0
 29 50  1  0  0  0  0
M  END
> <Name>
35

> <IC50[uM]>
0.004

$$$$
35
  -OEChem-05192314333D
 Structure written by MMmdl.
 50 54  0     1  0  0  0  0  0999 V2000
   -6.3895   12.3678  -12.0373 C   0  0  0  0  0  0  0  0  0  0  0  0
   -6.4824   11.8098  -10.7511 C   0  0  0  0  0  0  0  0  0  0  0  0
   -7.7271   10.5745  -13.0290 C   0  0  0  0  0  0  0  0  0  0  0  0
   -7.0179   11.7711  -13.1287 C   0  0  0  0  0  0  0  0  0  0  0  0
   -7.8170   10.0145  -11.7522 C   0  0  3  0  0  0  0  0  0  0  0  0
   -7.2238   10.6236  -10.6024 C   0  0  0  0  0  0  0  0  0  0  0  0
   -7.6044    9.7508   -9.5065 C   0  0  0  0  0  0  0  0  0  0  0  0
   -8.2828    8.7443   -9.9813 N   0  0  0  0  0  0  0  0  0  0  0  0
   -8.4172    8.8704  -11.2949 N   0  0  0  0  0  0  0  0  0  0  0  0
   -7.3303    9.8854   -8.0203 C   0  0  0  0  0  0  0  0  0  0  0  0
   -4.3418   13.6528  -11.7950 N   0  0  0  0  0  0  0  0  0  0  0  0
   -5.6106   13.6402  -12.2589 C   0  0  0  0  0  0  0  0  0  0  0  0
   -6.1045   14.5768  -12.8828 O   0  0  0  0  0  0  0  0  0  0  0  0
   -5.9605   10.4846   -7.7337 C   0  0  0  0  0  0  0  0  0  0  0  0
   -4.8084    9.7674   -8.0514 C   0  0  0  0  0  0  0  0  0  0  0  0
   -3.5547   10.3189   -7.8020 C   0  0  0  0  0  0  0  0  0  0  0  0
   -3.4471   11.5931   -7.2348 C   0  0  0  0  0  0  0  0  0  0  0  0
   -4.6026   12.3073   -6.9145 C   0  0  0  0  0  0  0  0  0  0  0  0
   -5.8562   11.7556   -7.1614 C   0  0  0  0  0  0  0  0  0  0  0  0
   -2.1021   12.1835   -6.9708 C   0  0  0  0  0  0  0  0  0  0  0  0
   -1.7710   13.4390   -6.4702 C   0  0  0  0  0  0  0  0  0  0  0  0
   -0.4354   13.4950   -6.4103 N   0  0  0  0  0  0  0  0  0  0  0  0
    0.1709   12.4112   -6.8070 N   0  0  0  0  0  0  0  0  0  0  0  0
   -0.8030   11.5943   -7.1763 C   0  0  0  0  0  0  0  0  0  0  0  0
    0.3771   14.6141   -5.9576 C   0  0  0  0  0  0  0  0  0  0  0  0
   -3.4422   12.5360  -11.3947 C   0  0  0  0  0  0  0  0  0  0  0  0
   -2.3230   13.6139  -11.4067 C   0  0  0  0  0  0  0  0  0  0  0  0
   -3.2958   14.6820  -11.9593 C   0  0  0  0  0  0  0  0  0  0  0  0
   -1.7380   13.9356  -10.1565 O   0  0  0  0  0  0  0  0  0  0  0  0
   -6.0005   12.2762   -9.9046 H   0  0  0  0  0  0  0  0  0  0  0  0
   -8.1812   10.1071  -13.8902 H   0  0  0  0  0  0  0  0  0  0  0  0
   -6.9530   12.2555  -14.0918 H   0  0  0  0  0  0  0  0  0  0  0  0
   -8.7459   10.5752  -11.5709 H   0  0  0  0  0  0  0  0  0  0  0  0
   -8.0288    9.5892   -7.2517 H   0  0  0  0  0  0  0  0  0  0  0  0
   -5.4809   15.2921  -12.9272 H   0  0  0  0  0  0  0  0  0  0  0  0
   -4.8882    8.7841   -8.4909 H   0  0  0  0  0  0  0  0  0  0  0  0
   -2.6627    9.7615   -8.0471 H   0  0  0  0  0  0  0  0  0  0  0  0
   -4.5238   13.2903   -6.4741 H   0  0  0  0  0  0  0  0  0  0  0  0
   -6.7487   12.3097   -6.9107 H   0  0  0  0  0  0  0  0  0  0  0  0
   -2.4606   14.2195   -6.1845 H   0  0  0  0  0  0  0  0  0  0  0  0
   -0.6435   10.6063   -7.5823 H   0  0  0  0  0  0  0  0  0  0  0  0
    1.4419   14.3470   -6.0280 H   0  0  0  0  0  0  0  0  0  0  0  0
    0.1769   15.4918   -6.5897 H   0  0  0  0  0  0  0  0  0  0  0  0
    0.1266   14.8499   -4.9128 H   0  0  0  0  0  0  0  0  0  0  0  0
   -3.6551   12.0930  -10.4106 H   0  0  0  0  0  0  0  0  0  0  0  0
   -3.3293   11.7354  -12.1405 H   0  0  0  0  0  0  0  0  0  0  0  0
   -1.5662   13.3629  -12.1645 H   0  0  0  0  0  0  0  0  0  0  0  0
   -3.1063   14.9918  -12.9976 H   0  0  0  0  0  0  0  0  0  0  0  0
   -3.4165   15.5738  -11.3267 H   0  0  0  0  0  0  0  0  0  0  0  0
   -1.0709   14.6005  -10.2803 H   0  0  0  0  0  0  0  0  0  0  0  0
  1  2  1  0  0  0  0
  1  4  1  0  0  0  0
  1 12  2  3  0  0  0
  2  6  2  0  0  0  0
  3  4  2  0  0  0  0
  3  5  1  0  0  0  0
  5  6  1  0  0  0  0
  5  9  1  0  0  0  0
  6  7  1  0  0  0  0
  7  8  1  0  0  0  0
  7 10  2  3  0  0  0
  8  9  2  0  0  0  0
 10 14  1  0  0  0  0
 11 12  1  0  0  0  0
 11 26  1  0  0  0  0
 11 28  1  0  0  0  0
 12 13  1  0  0  0  0
 14 15  2  0  0  0  0
 14 19  1  0  0  0  0
 15 16  1  0  0  0  0
 16 17  2  0  0  0  0
 17 18  1  0  0  0  0
 17 20  1  0  0  0  0
 18 19  2  0  0  0  0
 20 21  2  0  0  0  0
 20 24  1  0  0  0  0
 21 22  1  0  0  0  0
 22 23  1  0  0  0  0
 22 25  1  0  0  0  0
 23 24  2  0  0  0  0
 26 27  1  0  0  0  0
 27 28  1  0  0  0  0
 27 29  1  0  0  0  0
  2 30  1  0  0  0  0
  3 31  1  0  0  0  0
  4 32  1  0  0  0  0
  5 33  1  0  0  0  0
 10 34  1  0  0  0  0
 13 35  1  0  0  0  0
 15 36  1  0  0  0  0
 16 37  1  0  0  0  0
 18 38  1  0  0  0  0
 19 39  1  0  0  0  0
 21 40  1  0  0  0  0
 24 41  1  0  0  0  0
 25 42  1  0  0  0  0
 25 43  1  0  0  0  0
 25 44  1  0  0  0  0
 26 45  1  0  0  0  0
 26 46  1  0  0  0  0
 27 47  1  0  0  0  0
 28 48  1  0  0  0  0
 28 49  1  0  0  0  0
 29 50  1  0  0  0  0
M  END
> <Name>
35

> <IC50[uM]>
0.004

$$$$
35
  -OEChem-05192314333D
 Structure written by MMmdl.
 50 54  0     0  0  0  0  0  0999 V2000
   -6.3895   12.3678  -12.0373 C   0  0  0  0  0  0  0  0  0  0  0  0
   -6.4824   11.8098  -10.7511 C   0  0  0  0  0  0  0  0  0  0  0  0
   -7.7271   10.5745  -13.0290 C   0  0  0  0  0  0  0  0  0  0  0  0
   -7.0179   11.7711  -13.1287 C   0  0  0  0  0  0  0  0  0  0  0  0
   -7.8170   10.0145  -11.7522 C   0  0  0  0  0  0  0  0  0  0  0  0
   -7.2238   10.6236  -10.6024 C   0  0  0  0  0  0  0  0  0  0  0  0
   -7.6044    9.7508   -9.5065 C   0  0  0  0  0  0  0  0  0  0  0  0
   -8.2828    8.7443   -9.9813 N   0  0  0  0  0  0  0  0  0  0  0  0
   -8.4172    8.8704  -11.2949 N   0  0  0  0  0  0  0  0  0  0  0  0
   -7.3303    9.8854   -8.0203 C   0  0  0  0  0  0  0  0  0  0  0  0
   -4.3418   13.6528  -11.7950 N   0  0  0  0  0  0  0  0  0  0  0  0
   -5.6106   13.6402  -12.2589 C   0  0  0  0  0  0  0  0  0  0  0  0
   -6.1045   14.5768  -12.8828 O   0  0  0  0  0  0  0  0  0  0  0  0
   -5.9605   10.4846   -7.7337 C   0  0  0  0  0  0  0  0  0  0  0  0
   -4.8084    9.7674   -8.0514 C   0  0  0  0  0  0  0  0  0  0  0  0
   -3.5547   10.3189   -7.8020 C   0  0  0  0  0  0  0  0  0  0  0  0
   -3.4471   11.5931   -7.2348 C   0  0  0  0  0  0  0  0  0  0  0  0
   -4.6026   12.3073   -6.9145 C   0  0  0  0  0  0  0  0  0  0  0  0
   -5.8562   11.7556   -7.1614 C   0  0  0  0  0  0  0  0  0  0  0  0
   -2.1021   12.1835   -6.9708 C   0  0  0  0  0  0  0  0  0  0  0  0
   -1.7710   13.4390   -6.4702 C   0  0  0  0  0  0  0  0  0  0  0  0
   -0.4354   13.4950   -6.4103 N   0  0  0  0  0  0  0  0  0  0  0  0
    0.1709   12.4112   -6.8070 N   0  0  0  0  0  0  0  0  0  0  0  0
   -0.8030   11.5943   -7.1763 C   0  0  0  0  0  0  0  0  0  0  0  0
    0.3771   14.6141   -5.9576 C   0  0  0  0  0  0  0  0  0  0  0  0
   -3.4422   12.5360  -11.3947 C   0  0  0  0  0  0  0  0  0  0  0  0
   -2.3230   13.6139  -11.4067 C   0  0  0  0  0  0  0  0  0  0  0  0
   -3.2958   14.6820  -11.9593 C   0  0  0  0  0  0  0  0  0  0  0  0
   -1.7380   13.9356  -10.1565 O   0  0  0  0  0  0  0  0  0  0  0  0
   -6.0005   12.2762   -9.9046 H   0  0  0  0  0  0  0  0  0  0  0  0
   -8.1812   10.1071  -13.8902 H   0  0  0  0  0  0  0  0  0  0  0  0
   -7.7299   12.5156  -13.5144 H   0  0  0  0  0  0  0  0  0  0  0  0
   -6.2295   11.5963  -13.8757 H   0  0  0  0  0  0  0  0  0  0  0  0
   -8.0288    9.5892   -7.2517 H   0  0  0  0  0  0  0  0  0  0  0  0
   -5.4809   15.2921  -12.9272 H   0  0  0  0  0  0  0  0  0  0  0  0
   -4.8882    8.7841   -8.4909 H   0  0  0  0  0  0  0  0  0  0  0  0
   -2.6627    9.7615   -8.0471 H   0  0  0  0  0  0  0  0  0  0  0  0
   -4.5238   13.2903   -6.4741 H   0  0  0  0  0  0  0  0  0  0  0  0
   -6.7487   12.3097   -6.9107 H   0  0  0  0  0  0  0  0  0  0  0  0
   -2.4606   14.2195   -6.1845 H   0  0  0  0  0  0  0  0  0  0  0  0
   -0.6435   10.6063   -7.5823 H   0  0  0  0  0  0  0  0  0  0  0  0
    1.4419   14.3470   -6.0280 H   0  0  0  0  0  0  0  0  0  0  0  0
    0.1769   15.4918   -6.5897 H   0  0  0  0  0  0  0  0  0  0  0  0
    0.1266   14.8499   -4.9128 H   0  0  0  0  0  0  0  0  0  0  0  0
   -3.6551   12.0930  -10.4106 H   0  0  0  0  0  0  0  0  0  0  0  0
   -3.3293   11.7354  -12.1405 H   0  0  0  0  0  0  0  0  0  0  0  0
   -1.5662   13.3629  -12.1645 H   0  0  0  0  0  0  0  0  0  0  0  0
   -3.1063   14.9918  -12.9976 H   0  0  0  0  0  0  0  0  0  0  0  0
   -3.4165   15.5738  -11.3267 H   0  0  0  0  0  0  0  0  0  0  0  0
   -1.0709   14.6005  -10.2803 H   0  0  0  0  0  0  0  0  0  0  0  0
  1  2  1  0  0  0  0
  1  4  1  0  0  0  0
  1 12  2  3  0  0  0
  2  6  2  0  0  0  0
  3  4  1  0  0  0  0
  3  5  2  0  0  0  0
  5  6  1  0  0  0  0
  5  9  1  0  0  0  0
  6  7  1  0  0  0  0
  7  8  1  0  0  0  0
  7 10  2  3  0  0  0
  8  9  2  0  0  0  0
 10 14  1  0  0  0  0
 11 12  1  0  0  0  0
 11 26  1  0  0  0  0
 11 28  1  0  0  0  0
 12 13  1  0  0  0  0
 14 15  2  0  0  0  0
 14 19  1  0  0  0  0
 15 16  1  0  0  0  0
 16 17  2  0  0  0  0
 17 18  1  0  0  0  0
 17 20  1  0  0  0  0
 18 19  2  0  0  0  0
 20 21  2  0  0  0  0
 20 24  1  0  0  0  0
 21 22  1  0  0  0  0
 22 23  1  0  0  0  0
 22 25  1  0  0  0  0
 23 24  2  0  0  0  0
 26 27  1  0  0  0  0
 27 28  1  0  0  0  0
 27 29  1  0  0  0  0
  2 30  1  0  0  0  0
  3 31  1  0  0  0  0
  4 32  1  0  0  0  0
  4 33  1  0  0  0  0
 10 34  1  0  0  0  0
 13 35  1  0  0  0  0
 15 36  1  0  0  0  0
 16 37  1  0  0  0  0
 18 38  1  0  0  0  0
 19 39  1  0  0  0  0
 21 40  1  0  0  0  0
 24 41  1  0  0  0  0
 25 42  1  0  0  0  0
 25 43  1  0  0  0  0
 25 44  1  0  0  0  0
 26 45  1  0  0  0  0
 26 46  1  0  0  0  0
 27 47  1  0  0  0  0
 28 48  1  0  0  0  0
 28 49  1  0  0  0  0
 29 50  1  0  0  0  0
M  END
> <Name>
35

> <IC50[uM]>
0.004

$$$$
35
  -OEChem-05192314333D
 Structure written by MMmdl.
 50 54  0     0  0  0  0  0  0999 V2000
   -6.3895   12.3678  -12.0373 C   0  0  0  0  0  0  0  0  0  0  0  0
   -6.4824   11.8098  -10.7511 C   0  0  0  0  0  0  0  0  0  0  0  0
   -7.7271   10.5745  -13.0290 C   0  0  0  0  0  0  0  0  0  0  0  0
   -7.0179   11.7711  -13.1287 C   0  0  0  0  0  0  0  0  0  0  0  0
   -7.8170   10.0145  -11.7522 C   0  0  0  0  0  0  0  0  0  0  0  0
   -7.2238   10.6236  -10.6024 C   0  0  0  0  0  0  0  0  0  0  0  0
   -7.6044    9.7508   -9.5065 C   0  0  0  0  0  0  0  0  0  0  0  0
   -8.2828    8.7443   -9.9813 N   0  0  0  0  0  0  0  0  0  0  0  0
   -8.4172    8.8704  -11.2949 N   0  0  0  0  0  0  0  0  0  0  0  0
   -7.3303    9.8854   -8.0203 C   0  0  0  0  0  0  0  0  0  0  0  0
   -4.3418   13.6528  -11.7950 N   0  0  0  0  0  0  0  0  0  0  0  0
   -5.6106   13.6402  -12.2589 C   0  0  0  0  0  0  0  0  0  0  0  0
   -6.1045   14.5768  -12.8828 O   0  0  0  0  0  0  0  0  0  0  0  0
   -5.9605   10.4846   -7.7337 C   0  0  0  0  0  0  0  0  0  0  0  0
   -4.8084    9.7674   -8.0514 C   0  0  0  0  0  0  0  0  0  0  0  0
   -3.5547   10.3189   -7.8020 C   0  0  0  0  0  0  0  0  0  0  0  0
   -3.4471   11.5931   -7.2348 C   0  0  0  0  0  0  0  0  0  0  0  0
   -4.6026   12.3073   -6.9145 C   0  0  0  0  0  0  0  0  0  0  0  0
   -5.8562   11.7556   -7.1614 C   0  0  0  0  0  0  0  0  0  0  0  0
   -2.1021   12.1835   -6.9708 C   0  0  0  0  0  0  0  0  0  0  0  0
   -1.7710   13.4390   -6.4702 C   0  0  0  0  0  0  0  0  0  0  0  0
   -0.4354   13.4950   -6.4103 N   0  0  0  0  0  0  0  0  0  0  0  0
    0.1709   12.4112   -6.8070 N   0  0  0  0  0  0  0  0  0  0  0  0
   -0.8030   11.5943   -7.1763 C   0  0  0  0  0  0  0  0  0  0  0  0
    0.3771   14.6141   -5.9576 C   0  0  0  0  0  0  0  0  0  0  0  0
   -3.4422   12.5360  -11.3947 C   0  0  0  0  0  0  0  0  0  0  0  0
   -2.3230   13.6139  -11.4067 C   0  0  0  0  0  0  0  0  0  0  0  0
   -3.2958   14.6820  -11.9593 C   0  0  0  0  0  0  0  0  0  0  0  0
   -1.7380   13.9356  -10.1565 O   0  0  0  0  0  0  0  0  0  0  0  0
   -5.4579   11.6013  -10.4092 H   0  0  0  0  0  0  0  0  0  0  0  0
   -6.9402   12.5668  -10.0974 H   0  0  0  0  0  0  0  0  0  0  0  0
   -8.1812   10.1071  -13.8902 H   0  0  0  0  0  0  0  0  0  0  0  0
   -6.9530   12.2555  -14.0918 H   0  0  0  0  0  0  0  0  0  0  0  0
   -8.0288    9.5892   -7.2517 H   0  0  0  0  0  0  0  0  0  0  0  0
   -5.4809   15.2921  -12.9272 H   0  0  0  0  0  0  0  0  0  0  0  0
   -4.8882    8.7841   -8.4909 H   0  0  0  0  0  0  0  0  0  0  0  0
   -2.6627    9.7615   -8.0471 H   0  0  0  0  0  0  0  0  0  0  0  0
   -4.5238   13.2903   -6.4741 H   0  0  0  0  0  0  0  0  0  0  0  0
   -6.7487   12.3097   -6.9107 H   0  0  0  0  0  0  0  0  0  0  0  0
   -2.4606   14.2195   -6.1845 H   0  0  0  0  0  0  0  0  0  0  0  0
   -0.6435   10.6063   -7.5823 H   0  0  0  0  0  0  0  0  0  0  0  0
    1.4419   14.3470   -6.0280 H   0  0  0  0  0  0  0  0  0  0  0  0
    0.1769   15.4918   -6.5897 H   0  0  0  0  0  0  0  0  0  0  0  0
    0.1266   14.8499   -4.9128 H   0  0  0  0  0  0  0  0  0  0  0  0
   -3.6551   12.0930  -10.4106 H   0  0  0  0  0  0  0  0  0  0  0  0
   -3.3293   11.7354  -12.1405 H   0  0  0  0  0  0  0  0  0  0  0  0
   -1.5662   13.3629  -12.1645 H   0  0  0  0  0  0  0  0  0  0  0  0
   -3.1063   14.9918  -12.9976 H   0  0  0  0  0  0  0  0  0  0  0  0
   -3.4165   15.5738  -11.3267 H   0  0  0  0  0  0  0  0  0  0  0  0
   -1.0709   14.6005  -10.2803 H   0  0  0  0  0  0  0  0  0  0  0  0
  1  2  1  0  0  0  0
  1  4  1  0  0  0  0
  1 12  2  3  0  0  0
  2  6  1  0  0  0  0
  3  4  2  0  0  0  0
  3  5  1  0  0  0  0
  5  6  2  0  0  0  0
  5  9  1  0  0  0  0
  6  7  1  0  0  0  0
  7  8  1  0  0  0  0
  7 10  2  3  0  0  0
  8  9  2  0  0  0  0
 10 14  1  0  0  0  0
 11 12  1  0  0  0  0
 11 26  1  0  0  0  0
 11 28  1  0  0  0  0
 12 13  1  0  0  0  0
 14 15  2  0  0  0  0
 14 19  1  0  0  0  0
 15 16  1  0  0  0  0
 16 17  2  0  0  0  0
 17 18  1  0  0  0  0
 17 20  1  0  0  0  0
 18 19  2  0  0  0  0
 20 21  2  0  0  0  0
 20 24  1  0  0  0  0
 21 22  1  0  0  0  0
 22 23  1  0  0  0  0
 22 25  1  0  0  0  0
 23 24  2  0  0  0  0
 26 27  1  0  0  0  0
 27 28  1  0  0  0  0
 27 29  1  0  0  0  0
  2 30  1  0  0  0  0
  2 31  1  0  0  0  0
  3 32  1  0  0  0  0
  4 33  1  0  0  0  0
 10 34  1  0  0  0  0
 13 35  1  0  0  0  0
 15 36  1  0  0  0  0
 16 37  1  0  0  0  0
 18 38  1  0  0  0  0
 19 39  1  0  0  0  0
 21 40  1  0  0  0  0
 24 41  1  0  0  0  0
 25 42  1  0  0  0  0
 25 43  1  0  0  0  0
 25 44  1  0  0  0  0
 26 45  1  0  0  0  0
 26 46  1  0  0  0  0
 27 47  1  0  0  0  0
 28 48  1  0  0  0  0
 28 49  1  0  0  0  0
 29 50  1  0  0  0  0
M  END
> <Name>
35

> <IC50[uM]>
0.004

$$$$
35
  -OEChem-05192314333D
 Structure written by MMmdl.
 50 54  0     0  0  0  0  0  0999 V2000
   -6.3895   12.3678  -12.0373 C   0  0  0  0  0  0  0  0  0  0  0  0
   -6.4824   11.8098  -10.7511 C   0  0  0  0  0  0  0  0  0  0  0  0
   -7.7271   10.5745  -13.0290 C   0  0  0  0  0  0  0  0  0  0  0  0
   -7.0179   11.7711  -13.1287 C   0  0  0  0  0  0  0  0  0  0  0  0
   -7.8170   10.0145  -11.7522 C   0  0  0  0  0  0  0  0  0  0  0  0
   -7.2238   10.6236  -10.6024 C   0  0  0  0  0  0  0  0  0  0  0  0
   -7.6044    9.7508   -9.5065 C   0  0  0  0  0  0  0  0  0  0  0  0
   -8.2828    8.7443   -9.9813 N   0  0  0  0  0  0  0  0  0  0  0  0
   -8.4172    8.8704  -11.2949 N   0  0  0  0  0  0  0  0  0  0  0  0
   -7.3303    9.8854   -8.0203 C   0  0  0  0  0  0  0  0  0  0  0  0
   -4.3418   13.6528  -11.7950 N   0  0  0  0  0  0  0  0  0  0  0  0
   -5.6106   13.6402  -12.2589 C   0  0  0  0  0  0  0  0  0  0  0  0
   -6.1045   14.5768  -12.8828 O   0  0  0  0  0  0  0  0  0  0  0  0
   -5.9605   10.4846   -7.7337 C   0  0  0  0  0  0  0  0  0  0  0  0
   -4.8084    9.7674   -8.0514 C   0  0  0  0  0  0  0  0  0  0  0  0
   -3.5547   10.3189   -7.8020 C   0  0  0  0  0  0  0  0  0  0  0  0
   -3.4471   11.5931   -7.2348 C   0  0  0  0  0  0  0  0  0  0  0  0
   -4.6026   12.3073   -6.9145 C   0  0  0  0  0  0  0  0  0  0  0  0
   -5.8562   11.7556   -7.1614 C   0  0  0  0  0  0  0  0  0  0  0  0
   -2.1021   12.1835   -6.9708 C   0  0  0  0  0  0  0  0  0  0  0  0
   -1.7710   13.4390   -6.4702 C   0  0  0  0  0  0  0  0  0  0  0  0
   -0.4354   13.4950   -6.4103 N   0  0  0  0  0  0  0  0  0  0  0  0
    0.1709   12.4112   -6.8070 N   0  0  0  0  0  0  0  0  0  0  0  0
   -0.8030   11.5943   -7.1763 C   0  0  0  0  0  0  0  0  0  0  0  0
    0.3771   14.6141   -5.9576 C   0  0  0  0  0  0  0  0  0  0  0  0
   -3.4422   12.5360  -11.3947 C   0  0  0  0  0  0  0  0  0  0  0  0
   -2.3230   13.6139  -11.4067 C   0  0  0  0  0  0  0  0  0  0  0  0
   -3.2958   14.6820  -11.9593 C   0  0  0  0  0  0  0  0  0  0  0  0
   -1.7380   13.9356  -10.1565 O   0  0  0  0  0  0  0  0  0  0  0  0
   -6.0005   12.2762   -9.9046 H   0  0  0  0  0  0  0  0  0  0  0  0
   -8.1812   10.1071  -13.8902 H   0  0  0  0  0  0  0  0  0  0  0  0
   -6.9530   12.2555  -14.0918 H   0  0  0  0  0  0  0  0  0  0  0  0
   -8.0288    9.5892   -7.2517 H   0  0  0  0  0  0  0  0  0  0  0  0
   -5.4809   15.2921  -12.9272 H   0  0  0  0  0  0  0  0  0  0  0  0
   -4.8882    8.7841   -8.4909 H   0  0  0  0  0  0  0  0  0  0  0  0
   -2.6627    9.7615   -8.0471 H   0  0  0  0  0  0  0  0  0  0  0  0
   -3.4475   12.0413   -8.2394 H   0  0  0  0  0  0  0  0  0  0  0  0
   -4.5238   13.2903   -6.4741 H   0  0  0  0  0  0  0  0  0  0  0  0
   -6.7487   12.3097   -6.9107 H   0  0  0  0  0  0  0  0  0  0  0  0
   -2.4606   14.2195   -6.1845 H   0  0  0  0  0  0  0  0  0  0  0  0
   -0.6435   10.6063   -7.5823 H   0  0  0  0  0  0  0  0  0  0  0  0
    1.4419   14.3470   -6.0280 H   0  0  0  0  0  0  0  0  0  0  0  0
    0.1769   15.4918   -6.5897 H   0  0  0  0  0  0  0  0  0  0  0  0
    0.1266   14.8499   -4.9128 H   0  0  0  0  0  0  0  0  0  0  0  0
   -3.6551   12.0930  -10.4106 H   0  0  0  0  0  0  0  0  0  0  0  0
   -3.3293   11.7354  -12.1405 H   0  0  0  0  0  0  0  0  0  0  0  0
   -1.5662   13.3629  -12.1645 H   0  0  0  0  0  0  0  0  0  0  0  0
   -3.1063   14.9918  -12.9976 H   0  0  0  0  0  0  0  0  0  0  0  0
   -3.4165   15.5738  -11.3267 H   0  0  0  0  0  0  0  0  0  0  0  0
   -1.0709   14.6005  -10.2803 H   0  0  0  0  0  0  0  0  0  0  0  0
  1  2  1  0  0  0  0
  1  4  1  0  0  0  0
  1 12  2  3  0  0  0
  2  6  2  0  0  0  0
  3  4  2  0  0  0  0
  3  5  1  0  0  0  0
  5  6  1  0  0  0  0
  5  9  2  0  0  0  0
  6  7  1  0  0  0  0
  7  8  2  0  0  0  0
  7 10  1  0  0  0  0
  8  9  1  0  0  0  0
 10 14  2  0  0  0  0
 11 12  1  0  0  0  0
 11 26  1  0  0  0  0
 11 28  1  0  0  0  0
 12 13  1  0  0  0  0
 14 15  1  0  0  0  0
 14 19  1  0  0  0  0
 15 16  2  0  0  0  0
 16 17  1  0  0  0  0
 17 18  1  0  0  0  0
 17 20  1  0  0  0  0
 18 19  2  0  0  0  0
 20 21  2  0  0  0  0
 20 24  1  0  0  0  0
 21 22  1  0  0  0  0
 22 23  1  0  0  0  0
 22 25  1  0  0  0  0
 23 24  2  0  0  0  0
 26 27  1  0  0  0  0
 27 28  1  0  0  0  0
 27 29  1  0  0  0  0
  2 30  1  0  0  0  0
  3 31  1  0  0  0  0
  4 32  1  0  0  0  0
 10 33  1  0  0  0  0
 13 34  1  0  0  0  0
 15 35  1  0  0  0  0
 16 36  1  0  0  0  0
 17 37  1  0  0  0  0
 18 38  1  0  0  0  0
 19 39  1  0  0  0  0
 21 40  1  0  0  0  0
 24 41  1  0  0  0  0
 25 42  1  0  0  0  0
 25 43  1  0  0  0  0
 25 44  1  0  0  0  0
 26 45  1  0  0  0  0
 26 46  1  0  0  0  0
 27 47  1  0  0  0  0
 28 48  1  0  0  0  0
 28 49  1  0  0  0  0
 29 50  1  0  0  0  0
M  END
> <Name>
35

> <IC50[uM]>
0.004

$$$$
35
  -OEChem-05192314333D
 Structure written by MMmdl.
 50 54  0     0  0  0  0  0  0999 V2000
   -6.3895   12.3678  -12.0373 C   0  0  0  0  0  0  0  0  0  0  0  0
   -6.4824   11.8098  -10.7511 C   0  0  0  0  0  0  0  0  0  0  0  0
   -7.7271   10.5745  -13.0290 C   0  0  0  0  0  0  0  0  0  0  0  0
   -7.0179   11.7711  -13.1287 C   0  0  0  0  0  0  0  0  0  0  0  0
   -7.8170   10.0145  -11.7522 C   0  0  0  0  0  0  0  0  0  0  0  0
   -7.2238   10.6236  -10.6024 C   0  0  0  0  0  0  0  0  0  0  0  0
   -7.6044    9.7508   -9.5065 C   0  0  0  0  0  0  0  0  0  0  0  0
   -8.2828    8.7443   -9.9813 N   0  0  0  0  0  0  0  0  0  0  0  0
   -8.4172    8.8704  -11.2949 N   0  0  0  0  0  0  0  0  0  0  0  0
   -7.3303    9.8854   -8.0203 C   0  0  0  0  0  0  0  0  0  0  0  0
   -4.3418   13.6528  -11.7950 N   0  0  0  0  0  0  0  0  0  0  0  0
   -5.6106   13.6402  -12.2589 C   0  0  0  0  0  0  0  0  0  0  0  0
   -6.1045   14.5768  -12.8828 O   0  0  0  0  0  0  0  0  0  0  0  0
   -5.9605   10.4846   -7.7337 C   0  0  0  0  0  0  0  0  0  0  0  0
   -4.8084    9.7674   -8.0514 C   0  0  0  0  0  0  0  0  0  0  0  0
   -3.5547   10.3189   -7.8020 C   0  0  0  0  0  0  0  0  0  0  0  0
   -3.4471   11.5931   -7.2348 C   0  0  0  0  0  0  0  0  0  0  0  0
   -4.6026   12.3073   -6.9145 C   0  0  0  0  0  0  0  0  0  0  0  0
   -5.8562   11.7556   -7.1614 C   0  0  0  0  0  0  0  0  0  0  0  0
   -2.1021   12.1835   -6.9708 C   0  0  0  0  0  0  0  0  0  0  0  0
   -1.7710   13.4390   -6.4702 C   0  0  0  0  0  0  0  0  0  0  0  0
   -0.4354   13.4950   -6.4103 N   0  0  0  0  0  0  0  0  0  0  0  0
    0.1709   12.4112   -6.8070 N   0  0  0  0  0  0  0  0  0  0  0  0
   -0.8030   11.5943   -7.1763 C   0  0  0  0  0  0  0  0  0  0  0  0
    0.3771   14.6141   -5.9576 C   0  0  0  0  0  0  0  0  0  0  0  0
   -3.4422   12.5360  -11.3947 C   0  0  0  0  0  0  0  0  0  0  0  0
   -2.3230   13.6139  -11.4067 C   0  0  0  0  0  0  0  0  0  0  0  0
   -3.2958   14.6820  -11.9593 C   0  0  0  0  0  0  0  0  0  0  0  0
   -1.7380   13.9356  -10.1565 O   0  0  0  0  0  0  0  0  0  0  0  0
   -6.0005   12.2762   -9.9046 H   0  0  0  0  0  0  0  0  0  0  0  0
   -8.1812   10.1071  -13.8902 H   0  0  0  0  0  0  0  0  0  0  0  0
   -6.9530   12.2555  -14.0918 H   0  0  0  0  0  0  0  0  0  0  0  0
   -8.0288    9.5892   -7.2517 H   0  0  0  0  0  0  0  0  0  0  0  0
   -5.4809   15.2921  -12.9272 H   0  0  0  0  0  0  0  0  0  0  0  0
   -4.8882    8.7841   -8.4909 H   0  0  0  0  0  0  0  0  0  0  0  0
   -2.6627    9.7615   -8.0471 H   0  0  0  0  0  0  0  0  0  0  0  0
   -4.5238   13.2903   -6.4741 H   0  0  0  0  0  0  0  0  0  0  0  0
   -6.3821   12.4502   -7.8329 H   0  0  0  0  0  0  0  0  0  0  0  0
   -6.3800   11.7126   -6.1951 H   0  0  0  0  0  0  0  0  0  0  0  0
   -2.4606   14.2195   -6.1845 H   0  0  0  0  0  0  0  0  0  0  0  0
   -0.6435   10.6063   -7.5823 H   0  0  0  0  0  0  0  0  0  0  0  0
    1.4419   14.3470   -6.0280 H   0  0  0  0  0  0  0  0  0  0  0  0
    0.1769   15.4918   -6.5897 H   0  0  0  0  0  0  0  0  0  0  0  0
    0.1266   14.8499   -4.9128 H   0  0  0  0  0  0  0  0  0  0  0  0
   -3.6551   12.0930  -10.4106 H   0  0  0  0  0  0  0  0  0  0  0  0
   -3.3293   11.7354  -12.1405 H   0  0  0  0  0  0  0  0  0  0  0  0
   -1.5662   13.3629  -12.1645 H   0  0  0  0  0  0  0  0  0  0  0  0
   -3.1063   14.9918  -12.9976 H   0  0  0  0  0  0  0  0  0  0  0  0
   -3.4165   15.5738  -11.3267 H   0  0  0  0  0  0  0  0  0  0  0  0
   -1.0709   14.6005  -10.2803 H   0  0  0  0  0  0  0  0  0  0  0  0
  1  2  1  0  0  0  0
  1  4  1  0  0  0  0
  1 12  2  3  0  0  0
  2  6  2  0  0  0  0
  3  4  2  0  0  0  0
  3  5  1  0  0  0  0
  5  6  1  0  0  0  0
  5  9  2  0  0  0  0
  6  7  1  0  0  0  0
  7  8  2  0  0  0  0
  7 10  1  0  0  0  0
  8  9  1  0  0  0  0
 10 14  2  3  0  0  0
 11 12  1  0  0  0  0
 11 26  1  0  0  0  0
 11 28  1  0  0  0  0
 12 13  1  0  0  0  0
 14 15  1  0  0  0  0
 14 19  1  0  0  0  0
 15 16  2  0  0  0  0
 16 17  1  0  0  0  0
 17 18  2  0  0  0  0
 17 20  1  0  0  0  0
 18 19  1  0  0  0  0
 20 21  2  0  0  0  0
 20 24  1  0  0  0  0
 21 22  1  0  0  0  0
 22 23  1  0  0  0  0
 22 25  1  0  0  0  0
 23 24  2  0  0  0  0
 26 27  1  0  0  0  0
 27 28  1  0  0  0  0
 27 29  1  0  0  0  0
  2 30  1  0  0  0  0
  3 31  1  0  0  0  0
  4 32  1  0  0  0  0
 10 33  1  0  0  0  0
 13 34  1  0  0  0  0
 15 35  1  0  0  0  0
 16 36  1  0  0  0  0
 18 37  1  0  0  0  0
 19 38  1  0  0  0  0
 19 39  1  0  0  0  0
 21 40  1  0  0  0  0
 24 41  1  0  0  0  0
 25 42  1  0  0  0  0
 25 43  1  0  0  0  0
 25 44  1  0  0  0  0
 26 45  1  0  0  0  0
 26 46  1  0  0  0  0
 27 47  1  0  0  0  0
 28 48  1  0  0  0  0
 28 49  1  0  0  0  0
 29 50  1  0  0  0  0
M  END
> <Name>
35

> <IC50[uM]>
0.004

$$$$
