20
  -OEChem-05192314333D
 Structure written by MMmdl.
 55 58  0     0  0  0  0  0  0999 V2000
   -6.3740   12.3524  -12.0161 C   0  0  0  0  0  0  0  0  0  0  0  0
   -6.5100   11.8065  -10.7374 C   0  0  0  0  0  0  0  0  0  0  0  0
   -7.7222   10.5841  -13.0265 C   0  0  0  0  0  0  0  0  0  0  0  0
   -6.9887   11.7756  -13.1353 C   0  0  0  0  0  0  0  0  0  0  0  0
   -7.8163   10.0177  -11.7563 C   0  0  0  0  0  0  0  0  0  0  0  0
   -7.2425   10.6185  -10.6022 C   0  0  0  0  0  0  0  0  0  0  0  0
   -7.6172    9.7487   -9.5090 C   0  0  0  0  0  0  0  0  0  0  0  0
   -8.2846    8.7289   -9.9848 N   0  0  0  0  0  0  0  0  0  0  0  0
   -8.4176    8.8659  -11.2967 N   0  0  0  0  0  0  0  0  0  0  0  0
   -7.3368    9.8884   -8.0257 C   0  0  0  0  0  0  0  0  0  0  0  0
   -4.4023   13.6480  -11.4578 N   0  0  0  0  0  0  0  0  0  0  0  0
   -3.4623   14.7747  -11.4948 C   0  0  0  0  0  0  0  0  0  0  0  0
   -5.5331   13.6158  -12.1961 C   0  0  0  0  0  0  0  0  0  0  0  0
   -5.8776   14.5022  -12.9731 O   0  0  0  0  0  0  0  0  0  0  0  0
   -5.9585   10.4860   -7.7354 C   0  0  0  0  0  0  0  0  0  0  0  0
   -5.8494   11.7555   -7.1596 C   0  0  0  0  0  0  0  0  0  0  0  0
   -4.5968   12.3068   -6.9148 C   0  0  0  0  0  0  0  0  0  0  0  0
   -3.4468   11.5860   -7.2370 C   0  0  0  0  0  0  0  0  0  0  0  0
   -3.5513   10.3089   -7.8057 C   0  0  0  0  0  0  0  0  0  0  0  0
   -4.8090    9.7654   -8.0523 C   0  0  0  0  0  0  0  0  0  0  0  0
   -2.0901   12.1669   -6.9801 C   0  0  0  0  0  0  0  0  0  0  0  0
   -1.7479   13.4121   -6.4872 C   0  0  0  0  0  0  0  0  0  0  0  0
   -0.3990   13.4663   -6.4328 N   0  0  0  0  0  0  0  0  0  0  0  0
    0.1869   12.3691   -6.8386 N   0  0  0  0  0  0  0  0  0  0  0  0
   -0.8034   11.5628   -7.1902 C   0  0  0  0  0  0  0  0  0  0  0  0
    0.4389   14.5894   -5.9640 C   0  0  0  0  0  0  0  0  0  0  0  0
    1.5042   14.2139   -4.8744 C   0  0  0  0  0  0  0  0  0  0  0  0
    2.6302   13.6295   -5.4977 O   0  0  0  0  0  0  0  0  0  0  0  0
    0.9501   13.1612   -3.9053 C   0  0  0  0  0  0  0  0  0  0  0  0
    2.0179   15.4484   -4.1037 C   0  0  0  0  0  0  0  0  0  0  0  0
   -6.0641   12.2854   -9.8782 H   0  0  0  0  0  0  0  0  0  0  0  0
   -8.1913   10.1279  -13.8857 H   0  0  0  0  0  0  0  0  0  0  0  0
   -6.8965   12.2561  -14.0981 H   0  0  0  0  0  0  0  0  0  0  0  0
   -8.6387    7.9660   -9.4439 H   0  0  0  0  0  0  0  0  0  0  0  0
   -8.1032   10.5418   -7.5834 H   0  0  0  0  0  0  0  0  0  0  0  0
   -7.3924    8.8923   -7.5624 H   0  0  0  0  0  0  0  0  0  0  0  0
   -4.1971   12.8720  -10.8613 H   0  0  0  0  0  0  0  0  0  0  0  0
   -2.6221   14.5745  -10.8136 H   0  0  0  0  0  0  0  0  0  0  0  0
   -3.0817   14.9010  -12.5191 H   0  0  0  0  0  0  0  0  0  0  0  0
   -3.9787   15.6934  -11.1797 H   0  0  0  0  0  0  0  0  0  0  0  0
   -6.7407   12.3094   -6.9043 H   0  0  0  0  0  0  0  0  0  0  0  0
   -4.5143   13.2904   -6.4764 H   0  0  0  0  0  0  0  0  0  0  0  0
   -2.6607    9.7496   -8.0512 H   0  0  0  0  0  0  0  0  0  0  0  0
   -4.8939    8.7820   -8.4907 H   0  0  0  0  0  0  0  0  0  0  0  0
   -2.4321   14.1965   -6.1989 H   0  0  0  0  0  0  0  0  0  0  0  0
   -0.6606   10.5688   -7.5878 H   0  0  0  0  0  0  0  0  0  0  0  0
    0.9713   15.0036   -6.8329 H   0  0  0  0  0  0  0  0  0  0  0  0
   -0.2256   15.3572   -5.5409 H   0  0  0  0  0  0  0  0  0  0  0  0
    3.2752   13.4021   -4.8384 H   0  0  0  0  0  0  0  0  0  0  0  0
    1.7145   12.9160   -3.1533 H   0  0  0  0  0  0  0  0  0  0  0  0
    0.0563   13.5598   -3.4030 H   0  0  0  0  0  0  0  0  0  0  0  0
    0.6818   12.2530   -4.4649 H   0  0  0  0  0  0  0  0  0  0  0  0
    2.7591   15.1317   -3.3552 H   0  0  0  0  0  0  0  0  0  0  0  0
    2.4859   16.1517   -4.8082 H   0  0  0  0  0  0  0  0  0  0  0  0
    1.1747   15.9421   -3.5985 H   0  0  0  0  0  0  0  0  0  0  0  0
  1  2  2  0  0  0  0
  1  4  1  0  0  0  0
  1 13  1  0  0  0  0
  2  6  1  0  0  0  0
  3  4  2  0  0  0  0
  3  5  1  0  0  0  0
  5  6  1  0  0  0  0
  5  9  2  0  0  0  0
  6  7  2  0  0  0  0
  7  8  1  0  0  0  0
  7 10  1  0  0  0  0
  8  9  1  0  0  0  0
 10 15  1  0  0  0  0
 11 12  1  0  0  0  0
 11 13  1  0  0  0  0
 13 14  2  0  0  0  0
 15 16  2  0  0  0  0
 15 20  1  0  0  0  0
 16 17  1  0  0  0  0
 17 18  2  0  0  0  0
 18 19  1  0  0  0  0
 18 21  1  0  0  0  0
 19 20  2  0  0  0  0
 21 22  2  0  0  0  0
 21 25  1  0  0  0  0
 22 23  1  0  0  0  0
 23 24  1  0  0  0  0
 23 26  1  0  0  0  0
 24 25  2  0  0  0  0
 26 27  1  0  0  0  0
 27 28  1  0  0  0  0
 27 29  1  0  0  0  0
 27 30  1  0  0  0  0
  2 31  1  0  0  0  0
  3 32  1  0  0  0  0
  4 33  1  0  0  0  0
  8 34  1  0  0  0  0
 10 35  1  0  0  0  0
 10 36  1  0  0  0  0
 11 37  1  0  0  0  0
 12 38  1  0  0  0  0
 12 39  1  0  0  0  0
 12 40  1  0  0  0  0
 16 41  1  0  0  0  0
 17 42  1  0  0  0  0
 19 43  1  0  0  0  0
 20 44  1  0  0  0  0
 22 45  1  0  0  0  0
 25 46  1  0  0  0  0
 26 47  1  0  0  0  0
 26 48  1  0  0  0  0
 28 49  1  0  0  0  0
 29 50  1  0  0  0  0
 29 51  1  0  0  0  0
 29 52  1  0  0  0  0
 30 53  1  0  0  0  0
 30 54  1  0  0  0  0
 30 55  1  0  0  0  0
M  END
> <Name>
20

> <IC50[uM]>
0.016

$$$$
20
  -OEChem-05192314333D
 Structure written by MMmdl.
 55 58  0     0  0  0  0  0  0999 V2000
   -6.3740   12.3524  -12.0161 C   0  0  0  0  0  0  0  0  0  0  0  0
   -6.5100   11.8065  -10.7374 C   0  0  0  0  0  0  0  0  0  0  0  0
   -7.7222   10.5841  -13.0265 C   0  0  0  0  0  0  0  0  0  0  0  0
   -6.9887   11.7756  -13.1353 C   0  0  0  0  0  0  0  0  0  0  0  0
   -7.8163   10.0177  -11.7563 C   0  0  0  0  0  0  0  0  0  0  0  0
   -7.2425   10.6185  -10.6022 C   0  0  0  0  0  0  0  0  0  0  0  0
   -7.6172    9.7487   -9.5090 C   0  0  0  0  0  0  0  0  0  0  0  0
   -8.2846    8.7289   -9.9848 N   0  0  0  0  0  0  0  0  0  0  0  0
   -8.4176    8.8659  -11.2967 N   0  0  0  0  0  0  0  0  0  0  0  0
   -7.3368    9.8884   -8.0257 C   0  0  0  0  0  0  0  0  0  0  0  0
   -4.4023   13.6480  -11.4578 N   0  0  0  0  0  0  0  0  0  0  0  0
   -3.4623   14.7747  -11.4948 C   0  0  0  0  0  0  0  0  0  0  0  0
   -5.5331   13.6158  -12.1961 C   0  0  0  0  0  0  0  0  0  0  0  0
   -5.8776   14.5022  -12.9731 O   0  0  0  0  0  0  0  0  0  0  0  0
   -5.9585   10.4860   -7.7354 C   0  0  0  0  0  0  0  0  0  0  0  0
   -5.8494   11.7555   -7.1596 C   0  0  0  0  0  0  0  0  0  0  0  0
   -4.5968   12.3068   -6.9148 C   0  0  0  0  0  0  0  0  0  0  0  0
   -3.4468   11.5860   -7.2370 C   0  0  0  0  0  0  0  0  0  0  0  0
   -3.5513   10.3089   -7.8057 C   0  0  0  0  0  0  0  0  0  0  0  0
   -4.8090    9.7654   -8.0523 C   0  0  0  0  0  0  0  0  0  0  0  0
   -2.0901   12.1669   -6.9801 C   0  0  0  0  0  0  0  0  0  0  0  0
   -1.7479   13.4121   -6.4872 C   0  0  0  0  0  0  0  0  0  0  0  0
   -0.3990   13.4663   -6.4328 N   0  0  0  0  0  0  0  0  0  0  0  0
    0.1869   12.3691   -6.8386 N   0  0  0  0  0  0  0  0  0  0  0  0
   -0.8034   11.5628   -7.1902 C   0  0  0  0  0  0  0  0  0  0  0  0
    0.4389   14.5894   -5.9640 C   0  0  0  0  0  0  0  0  0  0  0  0
    1.5042   14.2139   -4.8744 C   0  0  0  0  0  0  0  0  0  0  0  0
    2.6302   13.6295   -5.4977 O   0  0  0  0  0  0  0  0  0  0  0  0
    0.9501   13.1612   -3.9053 C   0  0  0  0  0  0  0  0  0  0  0  0
    2.0179   15.4484   -4.1037 C   0  0  0  0  0  0  0  0  0  0  0  0
   -6.0641   12.2854   -9.8782 H   0  0  0  0  0  0  0  0  0  0  0  0
   -8.1913   10.1279  -13.8857 H   0  0  0  0  0  0  0  0  0  0  0  0
   -6.8965   12.2561  -14.0981 H   0  0  0  0  0  0  0  0  0  0  0  0
   -8.8966    8.2121  -11.8824 H   0  0  0  0  0  0  0  0  0  0  0  0
   -8.1032   10.5418   -7.5834 H   0  0  0  0  0  0  0  0  0  0  0  0
   -7.3924    8.8923   -7.5624 H   0  0  0  0  0  0  0  0  0  0  0  0
   -4.1971   12.8720  -10.8613 H   0  0  0  0  0  0  0  0  0  0  0  0
   -2.6221   14.5745  -10.8136 H   0  0  0  0  0  0  0  0  0  0  0  0
   -3.0817   14.9010  -12.5191 H   0  0  0  0  0  0  0  0  0  0  0  0
   -3.9787   15.6934  -11.1797 H   0  0  0  0  0  0  0  0  0  0  0  0
   -6.7407   12.3094   -6.9043 H   0  0  0  0  0  0  0  0  0  0  0  0
   -4.5143   13.2904   -6.4764 H   0  0  0  0  0  0  0  0  0  0  0  0
   -2.6607    9.7496   -8.0512 H   0  0  0  0  0  0  0  0  0  0  0  0
   -4.8939    8.7820   -8.4907 H   0  0  0  0  0  0  0  0  0  0  0  0
   -2.4321   14.1965   -6.1989 H   0  0  0  0  0  0  0  0  0  0  0  0
   -0.6606   10.5688   -7.5878 H   0  0  0  0  0  0  0  0  0  0  0  0
    0.9713   15.0036   -6.8329 H   0  0  0  0  0  0  0  0  0  0  0  0
   -0.2256   15.3572   -5.5409 H   0  0  0  0  0  0  0  0  0  0  0  0
    3.2752   13.4021   -4.8384 H   0  0  0  0  0  0  0  0  0  0  0  0
    1.7145   12.9160   -3.1533 H   0  0  0  0  0  0  0  0  0  0  0  0
    0.0563   13.5598   -3.4030 H   0  0  0  0  0  0  0  0  0  0  0  0
    0.6818   12.2530   -4.4649 H   0  0  0  0  0  0  0  0  0  0  0  0
    2.7591   15.1317   -3.3552 H   0  0  0  0  0  0  0  0  0  0  0  0
    2.4859   16.1517   -4.8082 H   0  0  0  0  0  0  0  0  0  0  0  0
    1.1747   15.9421   -3.5985 H   0  0  0  0  0  0  0  0  0  0  0  0
  1  2  2  0  0  0  0
  1  4  1  0  0  0  0
  1 13  1  0  0  0  0
  2  6  1  0  0  0  0
  3  4  2  0  0  0  0
  3  5  1  0  0  0  0
  5  6  2  0  0  0  0
  5  9  1  0  0  0  0
  6  7  1  0  0  0  0
  7  8  2  0  0  0  0
  7 10  1  0  0  0  0
  8  9  1  0  0  0  0
 10 15  1  0  0  0  0
 11 12  1  0  0  0  0
 11 13  1  0  0  0  0
 13 14  2  0  0  0  0
 15 16  2  0  0  0  0
 15 20  1  0  0  0  0
 16 17  1  0  0  0  0
 17 18  2  0  0  0  0
 18 19  1  0  0  0  0
 18 21  1  0  0  0  0
 19 20  2  0  0  0  0
 21 22  2  0  0  0  0
 21 25  1  0  0  0  0
 22 23  1  0  0  0  0
 23 24  1  0  0  0  0
 23 26  1  0  0  0  0
 24 25  2  0  0  0  0
 26 27  1  0  0  0  0
 27 28  1  0  0  0  0
 27 29  1  0  0  0  0
 27 30  1  0  0  0  0
  2 31  1  0  0  0  0
  3 32  1  0  0  0  0
  4 33  1  0  0  0  0
  9 34  1  0  0  0  0
 10 35  1  0  0  0  0
 10 36  1  0  0  0  0
 11 37  1  0  0  0  0
 12 38  1  0  0  0  0
 12 39  1  0  0  0  0
 12 40  1  0  0  0  0
 16 41  1  0  0  0  0
 17 42  1  0  0  0  0
 19 43  1  0  0  0  0
 20 44  1  0  0  0  0
 22 45  1  0  0  0  0
 25 46  1  0  0  0  0
 26 47  1  0  0  0  0
 26 48  1  0  0  0  0
 28 49  1  0  0  0  0
 29 50  1  0  0  0  0
 29 51  1  0  0  0  0
 29 52  1  0  0  0  0
 30 53  1  0  0  0  0
 30 54  1  0  0  0  0
 30 55  1  0  0  0  0
M  END
> <Name>
20

> <IC50[uM]>
0.016

$$$$
20
  -OEChem-05192314333D
 Structure written by MMmdl.
 55 58  0     0  0  0  0  0  0999 V2000
   -6.3740   12.3524  -12.0161 C   0  0  0  0  0  0  0  0  0  0  0  0
   -6.5100   11.8065  -10.7374 C   0  0  0  0  0  0  0  0  0  0  0  0
   -7.7222   10.5841  -13.0265 C   0  0  0  0  0  0  0  0  0  0  0  0
   -6.9887   11.7756  -13.1353 C   0  0  0  0  0  0  0  0  0  0  0  0
   -7.8163   10.0177  -11.7563 C   0  0  0  0  0  0  0  0  0  0  0  0
   -7.2425   10.6185  -10.6022 C   0  0  0  0  0  0  0  0  0  0  0  0
   -7.6172    9.7487   -9.5090 C   0  0  0  0  0  0  0  0  0  0  0  0
   -8.2846    8.7289   -9.9848 N   0  0  0  0  0  0  0  0  0  0  0  0
   -8.4176    8.8659  -11.2967 N   0  0  0  0  0  0  0  0  0  0  0  0
   -7.3368    9.8884   -8.0257 C   0  0  0  0  0  0  0  0  0  0  0  0
   -4.4023   13.6480  -11.4578 N   0  0  0  0  0  0  0  0  0  0  0  0
   -3.4623   14.7747  -11.4948 C   0  0  0  0  0  0  0  0  0  0  0  0
   -5.5331   13.6158  -12.1961 C   0  0  0  0  0  0  0  0  0  0  0  0
   -5.8776   14.5022  -12.9731 O   0  0  0  0  0  0  0  0  0  0  0  0
   -5.9585   10.4860   -7.7354 C   0  0  0  0  0  0  0  0  0  0  0  0
   -5.8494   11.7555   -7.1596 C   0  0  0  0  0  0  0  0  0  0  0  0
   -4.5968   12.3068   -6.9148 C   0  0  0  0  0  0  0  0  0  0  0  0
   -3.4468   11.5860   -7.2370 C   0  0  0  0  0  0  0  0  0  0  0  0
   -3.5513   10.3089   -7.8057 C   0  0  0  0  0  0  0  0  0  0  0  0
   -4.8090    9.7654   -8.0523 C   0  0  0  0  0  0  0  0  0  0  0  0
   -2.0901   12.1669   -6.9801 C   0  0  0  0  0  0  0  0  0  0  0  0
   -1.7479   13.4121   -6.4872 C   0  0  0  0  0  0  0  0  0  0  0  0
   -0.3990   13.4663   -6.4328 N   0  0  0  0  0  0  0  0  0  0  0  0
    0.1869   12.3691   -6.8386 N   0  0  0  0  0  0  0  0  0  0  0  0
   -0.8034   11.5628   -7.1902 C   0  0  0  0  0  0  0  0  0  0  0  0
    0.4389   14.5894   -5.9640 C   0  0  0  0  0  0  0  0  0  0  0  0
    1.5042   14.2139   -4.8744 C   0  0  0  0  0  0  0  0  0  0  0  0
    2.6302   13.6295   -5.4977 O   0  0  0  0  0  0  0  0  0  0  0  0
    0.9501   13.1612   -3.9053 C   0  0  0  0  0  0  0  0  0  0  0  0
    2.0179   15.4484   -4.1037 C   0  0  0  0  0  0  0  0  0  0  0  0
   -6.0641   12.2854   -9.8782 H   0  0  0  0  0  0  0  0  0  0  0  0
   -8.1913   10.1279  -13.8857 H   0  0  0  0  0  0  0  0  0  0  0  0
   -6.8965   12.2561  -14.0981 H   0  0  0  0  0  0  0  0  0  0  0  0
   -8.6387    7.9660   -9.4439 H   0  0  0  0  0  0  0  0  0  0  0  0
   -8.1032   10.5418   -7.5834 H   0  0  0  0  0  0  0  0  0  0  0  0
   -7.3924    8.8923   -7.5624 H   0  0  0  0  0  0  0  0  0  0  0  0
   -2.6221   14.5745  -10.8136 H   0  0  0  0  0  0  0  0  0  0  0  0
   -3.0817   14.9010  -12.5191 H   0  0  0  0  0  0  0  0  0  0  0  0
   -3.9787   15.6934  -11.1797 H   0  0  0  0  0  0  0  0  0  0  0  0
   -5.2393   15.2056  -12.9549 H   0  0  0  0  0  0  0  0  0  0  0  0
   -6.7407   12.3094   -6.9043 H   0  0  0  0  0  0  0  0  0  0  0  0
   -4.5143   13.2904   -6.4764 H   0  0  0  0  0  0  0  0  0  0  0  0
   -2.6607    9.7496   -8.0512 H   0  0  0  0  0  0  0  0  0  0  0  0
   -4.8939    8.7820   -8.4907 H   0  0  0  0  0  0  0  0  0  0  0  0
   -2.4321   14.1965   -6.1989 H   0  0  0  0  0  0  0  0  0  0  0  0
   -0.6606   10.5688   -7.5878 H   0  0  0  0  0  0  0  0  0  0  0  0
    0.9713   15.0036   -6.8329 H   0  0  0  0  0  0  0  0  0  0  0  0
   -0.2256   15.3572   -5.5409 H   0  0  0  0  0  0  0  0  0  0  0  0
    3.2752   13.4021   -4.8384 H   0  0  0  0  0  0  0  0  0  0  0  0
    1.7145   12.9160   -3.1533 H   0  0  0  0  0  0  0  0  0  0  0  0
    0.0563   13.5598   -3.4030 H   0  0  0  0  0  0  0  0  0  0  0  0
    0.6818   12.2530   -4.4649 H   0  0  0  0  0  0  0  0  0  0  0  0
    2.7591   15.1317   -3.3552 H   0  0  0  0  0  0  0  0  0  0  0  0
    2.4859   16.1517   -4.8082 H   0  0  0  0  0  0  0  0  0  0  0  0
    1.1747   15.9421   -3.5985 H   0  0  0  0  0  0  0  0  0  0  0  0
  1  2  2  0  0  0  0
  1  4  1  0  0  0  0
  1 13  1  0  0  0  0
  2  6  1  0  0  0  0
  3  4  2  0  0  0  0
  3  5  1  0  0  0  0
  5  6  1  0  0  0  0
  5  9  2  0  0  0  0
  6  7  2  0  0  0  0
  7  8  1  0  0  0  0
  7 10  1  0  0  0  0
  8  9  1  0  0  0  0
 10 15  1  0  0  0  0
 11 12  1  0  0  0  0
 11 13  2  0  0  0  0
 13 14  1  0  0  0  0
 15 16  2  0  0  0  0
 15 20  1  0  0  0  0
 16 17  1  0  0  0  0
 17 18  2  0  0  0  0
 18 19  1  0  0  0  0
 18 21  1  0  0  0  0
 19 20  2  0  0  0  0
 21 22  2  0  0  0  0
 21 25  1  0  0  0  0
 22 23  1  0  0  0  0
 23 24  1  0  0  0  0
 23 26  1  0  0  0  0
 24 25  2  0  0  0  0
 26 27  1  0  0  0  0
 27 28  1  0  0  0  0
 27 29  1  0  0  0  0
 27 30  1  0  0  0  0
  2 31  1  0  0  0  0
  3 32  1  0  0  0  0
  4 33  1  0  0  0  0
  8 34  1  0  0  0  0
 10 35  1  0  0  0  0
 10 36  1  0  0  0  0
 12 37  1  0  0  0  0
 12 38  1  0  0  0  0
 12 39  1  0  0  0  0
 14 40  1  0  0  0  0
 16 41  1  0  0  0  0
 17 42  1  0  0  0  0
 19 43  1  0  0  0  0
 20 44  1  0  0  0  0
 22 45  1  0  0  0  0
 25 46  1  0  0  0  0
 26 47  1  0  0  0  0
 26 48  1  0  0  0  0
 28 49  1  0  0  0  0
 29 50  1  0  0  0  0
 29 51  1  0  0  0  0
 29 52  1  0  0  0  0
 30 53  1  0  0  0  0
 30 54  1  0  0  0  0
 30 55  1  0  0  0  0
M  END
> <Name>
20

> <IC50[uM]>
0.016

$$$$
20
  -OEChem-05192314333D
 Structure written by MMmdl.
 55 58  0     0  0  0  0  0  0999 V2000
   -6.3740   12.3524  -12.0161 C   0  0  0  0  0  0  0  0  0  0  0  0
   -6.5100   11.8065  -10.7374 C   0  0  0  0  0  0  0  0  0  0  0  0
   -7.7222   10.5841  -13.0265 C   0  0  0  0  0  0  0  0  0  0  0  0
   -6.9887   11.7756  -13.1353 C   0  0  0  0  0  0  0  0  0  0  0  0
   -7.8163   10.0177  -11.7563 C   0  0  0  0  0  0  0  0  0  0  0  0
   -7.2425   10.6185  -10.6022 C   0  0  0  0  0  0  0  0  0  0  0  0
   -7.6172    9.7487   -9.5090 C   0  0  0  0  0  0  0  0  0  0  0  0
   -8.2846    8.7289   -9.9848 N   0  0  0  0  0  0  0  0  0  0  0  0
   -8.4176    8.8659  -11.2967 N   0  0  0  0  0  0  0  0  0  0  0  0
   -7.3368    9.8884   -8.0257 C   0  0  0  0  0  0  0  0  0  0  0  0
   -4.4023   13.6480  -11.4578 N   0  0  0  0  0  0  0  0  0  0  0  0
   -3.4623   14.7747  -11.4948 C   0  0  0  0  0  0  0  0  0  0  0  0
   -5.5331   13.6158  -12.1961 C   0  0  0  0  0  0  0  0  0  0  0  0
   -5.8776   14.5022  -12.9731 O   0  0  0  0  0  0  0  0  0  0  0  0
   -5.9585   10.4860   -7.7354 C   0  0  0  0  0  0  0  0  0  0  0  0
   -5.8494   11.7555   -7.1596 C   0  0  0  0  0  0  0  0  0  0  0  0
   -4.5968   12.3068   -6.9148 C   0  0  0  0  0  0  0  0  0  0  0  0
   -3.4468   11.5860   -7.2370 C   0  0  0  0  0  0  0  0  0  0  0  0
   -3.5513   10.3089   -7.8057 C   0  0  0  0  0  0  0  0  0  0  0  0
   -4.8090    9.7654   -8.0523 C   0  0  0  0  0  0  0  0  0  0  0  0
   -2.0901   12.1669   -6.9801 C   0  0  0  0  0  0  0  0  0  0  0  0
   -1.7479   13.4121   -6.4872 C   0  0  0  0  0  0  0  0  0  0  0  0
   -0.3990   13.4663   -6.4328 N   0  0  0  0  0  0  0  0  0  0  0  0
    0.1869   12.3691   -6.8386 N   0  0  0  0  0  0  0  0  0  0  0  0
   -0.8034   11.5628   -7.1902 C   0  0  0  0  0  0  0  0  0  0  0  0
    0.4389   14.5894   -5.9640 C   0  0  0  0  0  0  0  0  0  0  0  0
    1.5042   14.2139   -4.8744 C   0  0  0  0  0  0  0  0  0  0  0  0
    2.6302   13.6295   -5.4977 O   0  0  0  0  0  0  0  0  0  0  0  0
    0.9501   13.1612   -3.9053 C   0  0  0  0  0  0  0  0  0  0  0  0
    2.0179   15.4484   -4.1037 C   0  0  0  0  0  0  0  0  0  0  0  0
   -6.0641   12.2854   -9.8782 H   0  0  0  0  0  0  0  0  0  0  0  0
   -8.1913   10.1279  -13.8857 H   0  0  0  0  0  0  0  0  0  0  0  0
   -6.8965   12.2561  -14.0981 H   0  0  0  0  0  0  0  0  0  0  0  0
   -8.8966    8.2121  -11.8824 H   0  0  0  0  0  0  0  0  0  0  0  0
   -8.1032   10.5418   -7.5834 H   0  0  0  0  0  0  0  0  0  0  0  0
   -7.3924    8.8923   -7.5624 H   0  0  0  0  0  0  0  0  0  0  0  0
   -2.6221   14.5745  -10.8136 H   0  0  0  0  0  0  0  0  0  0  0  0
   -3.0817   14.9010  -12.5191 H   0  0  0  0  0  0  0  0  0  0  0  0
   -3.9787   15.6934  -11.1797 H   0  0  0  0  0  0  0  0  0  0  0  0
   -5.2393   15.2056  -12.9549 H   0  0  0  0  0  0  0  0  0  0  0  0
   -6.7407   12.3094   -6.9043 H   0  0  0  0  0  0  0  0  0  0  0  0
   -4.5143   13.2904   -6.4764 H   0  0  0  0  0  0  0  0  0  0  0  0
   -2.6607    9.7496   -8.0512 H   0  0  0  0  0  0  0  0  0  0  0  0
   -4.8939    8.7820   -8.4907 H   0  0  0  0  0  0  0  0  0  0  0  0
   -2.4321   14.1965   -6.1989 H   0  0  0  0  0  0  0  0  0  0  0  0
   -0.6606   10.5688   -7.5878 H   0  0  0  0  0  0  0  0  0  0  0  0
    0.9713   15.0036   -6.8329 H   0  0  0  0  0  0  0  0  0  0  0  0
   -0.2256   15.3572   -5.5409 H   0  0  0  0  0  0  0  0  0  0  0  0
    3.2752   13.4021   -4.8384 H   0  0  0  0  0  0  0  0  0  0  0  0
    1.7145   12.9160   -3.1533 H   0  0  0  0  0  0  0  0  0  0  0  0
    0.0563   13.5598   -3.4030 H   0  0  0  0  0  0  0  0  0  0  0  0
    0.6818   12.2530   -4.4649 H   0  0  0  0  0  0  0  0  0  0  0  0
    2.7591   15.1317   -3.3552 H   0  0  0  0  0  0  0  0  0  0  0  0
    2.4859   16.1517   -4.8082 H   0  0  0  0  0  0  0  0  0  0  0  0
    1.1747   15.9421   -3.5985 H   0  0  0  0  0  0  0  0  0  0  0  0
  1  2  2  0  0  0  0
  1  4  1  0  0  0  0
  1 13  1  0  0  0  0
  2  6  1  0  0  0  0
  3  4  2  0  0  0  0
  3  5  1  0  0  0  0
  5  6  2  0  0  0  0
  5  9  1  0  0  0  0
  6  7  1  0  0  0  0
  7  8  2  0  0  0  0
  7 10  1  0  0  0  0
  8  9  1  0  0  0  0
 10 15  1  0  0  0  0
 11 12  1  0  0  0  0
 11 13  2  0  0  0  0
 13 14  1  0  0  0  0
 15 16  2  0  0  0  0
 15 20  1  0  0  0  0
 16 17  1  0  0  0  0
 17 18  2  0  0  0  0
 18 19  1  0  0  0  0
 18 21  1  0  0  0  0
 19 20  2  0  0  0  0
 21 22  2  0  0  0  0
 21 25  1  0  0  0  0
 22 23  1  0  0  0  0
 23 24  1  0  0  0  0
 23 26  1  0  0  0  0
 24 25  2  0  0  0  0
 26 27  1  0  0  0  0
 27 28  1  0  0  0  0
 27 29  1  0  0  0  0
 27 30  1  0  0  0  0
  2 31  1  0  0  0  0
  3 32  1  0  0  0  0
  4 33  1  0  0  0  0
  9 34  1  0  0  0  0
 10 35  1  0  0  0  0
 10 36  1  0  0  0  0
 12 37  1  0  0  0  0
 12 38  1  0  0  0  0
 12 39  1  0  0  0  0
 14 40  1  0  0  0  0
 16 41  1  0  0  0  0
 17 42  1  0  0  0  0
 19 43  1  0  0  0  0
 20 44  1  0  0  0  0
 22 45  1  0  0  0  0
 25 46  1  0  0  0  0
 26 47  1  0  0  0  0
 26 48  1  0  0  0  0
 28 49  1  0  0  0  0
 29 50  1  0  0  0  0
 29 51  1  0  0  0  0
 29 52  1  0  0  0  0
 30 53  1  0  0  0  0
 30 54  1  0  0  0  0
 30 55  1  0  0  0  0
M  END
> <Name>
20

> <IC50[uM]>
0.016

$$$$
20
  -OEChem-05192314333D
 Structure written by MMmdl.
 55 58  0     1  0  0  0  0  0999 V2000
   -6.3740   12.3524  -12.0161 C   0  0  0  0  0  0  0  0  0  0  0  0
   -6.5100   11.8065  -10.7374 C   0  0  0  0  0  0  0  0  0  0  0  0
   -7.7222   10.5841  -13.0265 C   0  0  0  0  0  0  0  0  0  0  0  0
   -6.9887   11.7756  -13.1353 C   0  0  0  0  0  0  0  0  0  0  0  0
   -7.8163   10.0177  -11.7563 C   0  0  0  0  0  0  0  0  0  0  0  0
   -7.2425   10.6185  -10.6022 C   0  0  0  0  0  0  0  0  0  0  0  0
   -7.6172    9.7487   -9.5090 C   0  0  3  0  0  0  0  0  0  0  0  0
   -8.2846    8.7289   -9.9848 N   0  0  0  0  0  0  0  0  0  0  0  0
   -8.4176    8.8659  -11.2967 N   0  0  0  0  0  0  0  0  0  0  0  0
   -7.3368    9.8884   -8.0257 C   0  0  0  0  0  0  0  0  0  0  0  0
   -4.4023   13.6480  -11.4578 N   0  0  0  0  0  0  0  0  0  0  0  0
   -3.4623   14.7747  -11.4948 C   0  0  0  0  0  0  0  0  0  0  0  0
   -5.5331   13.6158  -12.1961 C   0  0  0  0  0  0  0  0  0  0  0  0
   -5.8776   14.5022  -12.9731 O   0  0  0  0  0  0  0  0  0  0  0  0
   -5.9585   10.4860   -7.7354 C   0  0  0  0  0  0  0  0  0  0  0  0
   -5.8494   11.7555   -7.1596 C   0  0  0  0  0  0  0  0  0  0  0  0
   -4.5968   12.3068   -6.9148 C   0  0  0  0  0  0  0  0  0  0  0  0
   -3.4468   11.5860   -7.2370 C   0  0  0  0  0  0  0  0  0  0  0  0
   -3.5513   10.3089   -7.8057 C   0  0  0  0  0  0  0  0  0  0  0  0
   -4.8090    9.7654   -8.0523 C   0  0  0  0  0  0  0  0  0  0  0  0
   -2.0901   12.1669   -6.9801 C   0  0  0  0  0  0  0  0  0  0  0  0
   -1.7479   13.4121   -6.4872 C   0  0  0  0  0  0  0  0  0  0  0  0
   -0.3990   13.4663   -6.4328 N   0  0  0  0  0  0  0  0  0  0  0  0
    0.1869   12.3691   -6.8386 N   0  0  0  0  0  0  0  0  0  0  0  0
   -0.8034   11.5628   -7.1902 C   0  0  0  0  0  0  0  0  0  0  0  0
    0.4389   14.5894   -5.9640 C   0  0  0  0  0  0  0  0  0  0  0  0
    1.5042   14.2139   -4.8744 C   0  0  0  0  0  0  0  0  0  0  0  0
    2.6302   13.6295   -5.4977 O   0  0  0  0  0  0  0  0  0  0  0  0
    0.9501   13.1612   -3.9053 C   0  0  0  0  0  0  0  0  0  0  0  0
    2.0179   15.4484   -4.1037 C   0  0  0  0  0  0  0  0  0  0  0  0
   -6.0641   12.2854   -9.8782 H   0  0  0  0  0  0  0  0  0  0  0  0
   -8.1913   10.1279  -13.8857 H   0  0  0  0  0  0  0  0  0  0  0  0
   -6.8965   12.2561  -14.0981 H   0  0  0  0  0  0  0  0  0  0  0  0
   -8.5567   10.3073   -9.3851 H   0  0  0  0  0  0  0  0  0  0  0  0
   -8.1032   10.5418   -7.5834 H   0  0  0  0  0  0  0  0  0  0  0  0
   -7.3924    8.8923   -7.5624 H   0  0  0  0  0  0  0  0  0  0  0  0
   -4.1971   12.8720  -10.8613 H   0  0  0  0  0  0  0  0  0  0  0  0
   -2.6221   14.5745  -10.8136 H   0  0  0  0  0  0  0  0  0  0  0  0
   -3.0817   14.9010  -12.5191 H   0  0  0  0  0  0  0  0  0  0  0  0
   -3.9787   15.6934  -11.1797 H   0  0  0  0  0  0  0  0  0  0  0  0
   -6.7407   12.3094   -6.9043 H   0  0  0  0  0  0  0  0  0  0  0  0
   -4.5143   13.2904   -6.4764 H   0  0  0  0  0  0  0  0  0  0  0  0
   -2.6607    9.7496   -8.0512 H   0  0  0  0  0  0  0  0  0  0  0  0
   -4.8939    8.7820   -8.4907 H   0  0  0  0  0  0  0  0  0  0  0  0
   -2.4321   14.1965   -6.1989 H   0  0  0  0  0  0  0  0  0  0  0  0
   -0.6606   10.5688   -7.5878 H   0  0  0  0  0  0  0  0  0  0  0  0
    0.9713   15.0036   -6.8329 H   0  0  0  0  0  0  0  0  0  0  0  0
   -0.2256   15.3572   -5.5409 H   0  0  0  0  0  0  0  0  0  0  0  0
    3.2752   13.4021   -4.8384 H   0  0  0  0  0  0  0  0  0  0  0  0
    1.7145   12.9160   -3.1533 H   0  0  0  0  0  0  0  0  0  0  0  0
    0.0563   13.5598   -3.4030 H   0  0  0  0  0  0  0  0  0  0  0  0
    0.6818   12.2530   -4.4649 H   0  0  0  0  0  0  0  0  0  0  0  0
    2.7591   15.1317   -3.3552 H   0  0  0  0  0  0  0  0  0  0  0  0
    2.4859   16.1517   -4.8082 H   0  0  0  0  0  0  0  0  0  0  0  0
    1.1747   15.9421   -3.5985 H   0  0  0  0  0  0  0  0  0  0  0  0
  1  2  2  0  0  0  0
  1  4  1  0  0  0  0
  1 13  1  0  0  0  0
  2  6  1  0  0  0  0
  3  4  2  0  0  0  0
  3  5  1  0  0  0  0
  5  6  2  0  0  0  0
  5  9  1  0  0  0  0
  6  7  1  0  0  0  0
  7  8  1  0  0  0  0
  7 10  1  0  0  0  0
  8  9  2  0  0  0  0
 10 15  1  0  0  0  0
 11 12  1  0  0  0  0
 11 13  1  0  0  0  0
 13 14  2  0  0  0  0
 15 16  2  0  0  0  0
 15 20  1  0  0  0  0
 16 17  1  0  0  0  0
 17 18  2  0  0  0  0
 18 19  1  0  0  0  0
 18 21  1  0  0  0  0
 19 20  2  0  0  0  0
 21 22  2  0  0  0  0
 21 25  1  0  0  0  0
 22 23  1  0  0  0  0
 23 24  1  0  0  0  0
 23 26  1  0  0  0  0
 24 25  2  0  0  0  0
 26 27  1  0  0  0  0
 27 28  1  0  0  0  0
 27 29  1  0  0  0  0
 27 30  1  0  0  0  0
  2 31  1  0  0  0  0
  3 32  1  0  0  0  0
  4 33  1  0  0  0  0
  7 34  1  0  0  0  0
 10 35  1  0  0  0  0
 10 36  1  0  0  0  0
 11 37  1  0  0  0  0
 12 38  1  0  0  0  0
 12 39  1  0  0  0  0
 12 40  1  0  0  0  0
 16 41  1  0  0  0  0
 17 42  1  0  0  0  0
 19 43  1  0  0  0  0
 20 44  1  0  0  0  0
 22 45  1  0  0  0  0
 25 46  1  0  0  0  0
 26 47  1  0  0  0  0
 26 48  1  0  0  0  0
 28 49  1  0  0  0  0
 29 50  1  0  0  0  0
 29 51  1  0  0  0  0
 29 52  1  0  0  0  0
 30 53  1  0  0  0  0
 30 54  1  0  0  0  0
 30 55  1  0  0  0  0
M  END
> <Name>
20

> <IC50[uM]>
0.016

$$$$
20
  -OEChem-05192314333D
 Structure written by MMmdl.
 55 58  0     1  0  0  0  0  0999 V2000
   -6.3740   12.3524  -12.0161 C   0  0  0  0  0  0  0  0  0  0  0  0
   -6.5100   11.8065  -10.7374 C   0  0  0  0  0  0  0  0  0  0  0  0
   -7.7222   10.5841  -13.0265 C   0  0  0  0  0  0  0  0  0  0  0  0
   -6.9887   11.7756  -13.1353 C   0  0  0  0  0  0  0  0  0  0  0  0
   -7.8163   10.0177  -11.7563 C   0  0  0  0  0  0  0  0  0  0  0  0
   -7.2425   10.6185  -10.6022 C   0  0  0  0  0  0  0  0  0  0  0  0
   -7.6172    9.7487   -9.5090 C   0  0  3  0  0  0  0  0  0  0  0  0
   -8.2846    8.7289   -9.9848 N   0  0  0  0  0  0  0  0  0  0  0  0
   -8.4176    8.8659  -11.2967 N   0  0  0  0  0  0  0  0  0  0  0  0
   -7.3368    9.8884   -8.0257 C   0  0  0  0  0  0  0  0  0  0  0  0
   -4.4023   13.6480  -11.4578 N   0  0  0  0  0  0  0  0  0  0  0  0
   -3.4623   14.7747  -11.4948 C   0  0  0  0  0  0  0  0  0  0  0  0
   -5.5331   13.6158  -12.1961 C   0  0  0  0  0  0  0  0  0  0  0  0
   -5.8776   14.5022  -12.9731 O   0  0  0  0  0  0  0  0  0  0  0  0
   -5.9585   10.4860   -7.7354 C   0  0  0  0  0  0  0  0  0  0  0  0
   -5.8494   11.7555   -7.1596 C   0  0  0  0  0  0  0  0  0  0  0  0
   -4.5968   12.3068   -6.9148 C   0  0  0  0  0  0  0  0  0  0  0  0
   -3.4468   11.5860   -7.2370 C   0  0  0  0  0  0  0  0  0  0  0  0
   -3.5513   10.3089   -7.8057 C   0  0  0  0  0  0  0  0  0  0  0  0
   -4.8090    9.7654   -8.0523 C   0  0  0  0  0  0  0  0  0  0  0  0
   -2.0901   12.1669   -6.9801 C   0  0  0  0  0  0  0  0  0  0  0  0
   -1.7479   13.4121   -6.4872 C   0  0  0  0  0  0  0  0  0  0  0  0
   -0.3990   13.4663   -6.4328 N   0  0  0  0  0  0  0  0  0  0  0  0
    0.1869   12.3691   -6.8386 N   0  0  0  0  0  0  0  0  0  0  0  0
   -0.8034   11.5628   -7.1902 C   0  0  0  0  0  0  0  0  0  0  0  0
    0.4389   14.5894   -5.9640 C   0  0  0  0  0  0  0  0  0  0  0  0
    1.5042   14.2139   -4.8744 C   0  0  0  0  0  0  0  0  0  0  0  0
    2.6302   13.6295   -5.4977 O   0  0  0  0  0  0  0  0  0  0  0  0
    0.9501   13.1612   -3.9053 C   0  0  0  0  0  0  0  0  0  0  0  0
    2.0179   15.4484   -4.1037 C   0  0  0  0  0  0  0  0  0  0  0  0
   -6.0641   12.2854   -9.8782 H   0  0  0  0  0  0  0  0  0  0  0  0
   -8.1913   10.1279  -13.8857 H   0  0  0  0  0  0  0  0  0  0  0  0
   -6.8965   12.2561  -14.0981 H   0  0  0  0  0  0  0  0  0  0  0  0
   -8.5567   10.3073   -9.3851 H   0  0  0  0  0  0  0  0  0  0  0  0
   -8.1032   10.5418   -7.5834 H   0  0  0  0  0  0  0  0  0  0  0  0
   -7.3924    8.8923   -7.5624 H   0  0  0  0  0  0  0  0  0  0  0  0
   -2.6221   14.5745  -10.8136 H   0  0  0  0  0  0  0  0  0  0  0  0
   -3.0817   14.9010  -12.5191 H   0  0  0  0  0  0  0  0  0  0  0  0
   -3.9787   15.6934  -11.1797 H   0  0  0  0  0  0  0  0  0  0  0  0
   -5.2393   15.2056  -12.9549 H   0  0  0  0  0  0  0  0  0  0  0  0
   -6.7407   12.3094   -6.9043 H   0  0  0  0  0  0  0  0  0  0  0  0
   -4.5143   13.2904   -6.4764 H   0  0  0  0  0  0  0  0  0  0  0  0
   -2.6607    9.7496   -8.0512 H   0  0  0  0  0  0  0  0  0  0  0  0
   -4.8939    8.7820   -8.4907 H   0  0  0  0  0  0  0  0  0  0  0  0
   -2.4321   14.1965   -6.1989 H   0  0  0  0  0  0  0  0  0  0  0  0
   -0.6606   10.5688   -7.5878 H   0  0  0  0  0  0  0  0  0  0  0  0
    0.9713   15.0036   -6.8329 H   0  0  0  0  0  0  0  0  0  0  0  0
   -0.2256   15.3572   -5.5409 H   0  0  0  0  0  0  0  0  0  0  0  0
    3.2752   13.4021   -4.8384 H   0  0  0  0  0  0  0  0  0  0  0  0
    1.7145   12.9160   -3.1533 H   0  0  0  0  0  0  0  0  0  0  0  0
    0.0563   13.5598   -3.4030 H   0  0  0  0  0  0  0  0  0  0  0  0
    0.6818   12.2530   -4.4649 H   0  0  0  0  0  0  0  0  0  0  0  0
    2.7591   15.1317   -3.3552 H   0  0  0  0  0  0  0  0  0  0  0  0
    2.4859   16.1517   -4.8082 H   0  0  0  0  0  0  0  0  0  0  0  0
    1.1747   15.9421   -3.5985 H   0  0  0  0  0  0  0  0  0  0  0  0
  1  2  2  0  0  0  0
  1  4  1  0  0  0  0
  1 13  1  0  0  0  0
  2  6  1  0  0  0  0
  3  4  2  0  0  0  0
  3  5  1  0  0  0  0
  5  6  2  0  0  0  0
  5  9  1  0  0  0  0
  6  7  1  0  0  0  0
  7  8  1  0  0  0  0
  7 10  1  0  0  0  0
  8  9  2  0  0  0  0
 10 15  1  0  0  0  0
 11 12  1  0  0  0  0
 11 13  2  0  0  0  0
 13 14  1  0  0  0  0
 15 16  2  0  0  0  0
 15 20  1  0  0  0  0
 16 17  1  0  0  0  0
 17 18  2  0  0  0  0
 18 19  1  0  0  0  0
 18 21  1  0  0  0  0
 19 20  2  0  0  0  0
 21 22  2  0  0  0  0
 21 25  1  0  0  0  0
 22 23  1  0  0  0  0
 23 24  1  0  0  0  0
 23 26  1  0  0  0  0
 24 25  2  0  0  0  0
 26 27  1  0  0  0  0
 27 28  1  0  0  0  0
 27 29  1  0  0  0  0
 27 30  1  0  0  0  0
  2 31  1  0  0  0  0
  3 32  1  0  0  0  0
  4 33  1  0  0  0  0
  7 34  1  0  0  0  0
 10 35  1  0  0  0  0
 10 36  1  0  0  0  0
 12 37  1  0  0  0  0
 12 38  1  0  0  0  0
 12 39  1  0  0  0  0
 14 40  1  0  0  0  0
 16 41  1  0  0  0  0
 17 42  1  0  0  0  0
 19 43  1  0  0  0  0
 20 44  1  0  0  0  0
 22 45  1  0  0  0  0
 25 46  1  0  0  0  0
 26 47  1  0  0  0  0
 26 48  1  0  0  0  0
 28 49  1  0  0  0  0
 29 50  1  0  0  0  0
 29 51  1  0  0  0  0
 29 52  1  0  0  0  0
 30 53  1  0  0  0  0
 30 54  1  0  0  0  0
 30 55  1  0  0  0  0
M  END
> <Name>
20

> <IC50[uM]>
0.016

$$$$
20
  -OEChem-05192314333D
 Structure written by MMmdl.
 55 58  0     0  0  0  0  0  0999 V2000
   -6.3740   12.3524  -12.0161 C   0  0  0  0  0  0  0  0  0  0  0  0
   -6.5100   11.8065  -10.7374 C   0  0  0  0  0  0  0  0  0  0  0  0
   -7.7222   10.5841  -13.0265 C   0  0  0  0  0  0  0  0  0  0  0  0
   -6.9887   11.7756  -13.1353 C   0  0  0  0  0  0  0  0  0  0  0  0
   -7.8163   10.0177  -11.7563 C   0  0  0  0  0  0  0  0  0  0  0  0
   -7.2425   10.6185  -10.6022 C   0  0  0  0  0  0  0  0  0  0  0  0
   -7.6172    9.7487   -9.5090 C   0  0  0  0  0  0  0  0  0  0  0  0
   -8.2846    8.7289   -9.9848 N   0  0  0  0  0  0  0  0  0  0  0  0
   -8.4176    8.8659  -11.2967 N   0  0  0  0  0  0  0  0  0  0  0  0
   -7.3368    9.8884   -8.0257 C   0  0  0  0  0  0  0  0  0  0  0  0
   -4.4023   13.6480  -11.4578 N   0  0  0  0  0  0  0  0  0  0  0  0
   -3.4623   14.7747  -11.4948 C   0  0  0  0  0  0  0  0  0  0  0  0
   -5.5331   13.6158  -12.1961 C   0  0  0  0  0  0  0  0  0  0  0  0
   -5.8776   14.5022  -12.9731 O   0  0  0  0  0  0  0  0  0  0  0  0
   -5.9585   10.4860   -7.7354 C   0  0  0  0  0  0  0  0  0  0  0  0
   -5.8494   11.7555   -7.1596 C   0  0  0  0  0  0  0  0  0  0  0  0
   -4.5968   12.3068   -6.9148 C   0  0  0  0  0  0  0  0  0  0  0  0
   -3.4468   11.5860   -7.2370 C   0  0  0  0  0  0  0  0  0  0  0  0
   -3.5513   10.3089   -7.8057 C   0  0  0  0  0  0  0  0  0  0  0  0
   -4.8090    9.7654   -8.0523 C   0  0  0  0  0  0  0  0  0  0  0  0
   -2.0901   12.1669   -6.9801 C   0  0  0  0  0  0  0  0  0  0  0  0
   -1.7479   13.4121   -6.4872 C   0  0  0  0  0  0  0  0  0  0  0  0
   -0.3990   13.4663   -6.4328 N   0  0  0  0  0  0  0  0  0  0  0  0
    0.1869   12.3691   -6.8386 N   0  0  0  0  0  0  0  0  0  0  0  0
   -0.8034   11.5628   -7.1902 C   0  0  0  0  0  0  0  0  0  0  0  0
    0.4389   14.5894   -5.9640 C   0  0  0  0  0  0  0  0  0  0  0  0
    1.5042   14.2139   -4.8744 C   0  0  0  0  0  0  0  0  0  0  0  0
    2.6302   13.6295   -5.4977 O   0  0  0  0  0  0  0  0  0  0  0  0
    0.9501   13.1612   -3.9053 C   0  0  0  0  0  0  0  0  0  0  0  0
    2.0179   15.4484   -4.1037 C   0  0  0  0  0  0  0  0  0  0  0  0
   -6.0641   12.2854   -9.8782 H   0  0  0  0  0  0  0  0  0  0  0  0
   -8.1913   10.1279  -13.8857 H   0  0  0  0  0  0  0  0  0  0  0  0
   -6.8965   12.2561  -14.0981 H   0  0  0  0  0  0  0  0  0  0  0  0
   -7.7893    7.8833   -9.7858 H   0  0  0  0  0  0  0  0  0  0  0  0
   -9.3915    8.8977  -11.5214 H   0  0  0  0  0  0  0  0  0  0  0  0
   -8.0357    9.5970   -7.2556 H   0  0  0  0  0  0  0  0  0  0  0  0
   -4.1971   12.8720  -10.8613 H   0  0  0  0  0  0  0  0  0  0  0  0
   -2.6221   14.5745  -10.8136 H   0  0  0  0  0  0  0  0  0  0  0  0
   -3.0817   14.9010  -12.5191 H   0  0  0  0  0  0  0  0  0  0  0  0
   -3.9787   15.6934  -11.1797 H   0  0  0  0  0  0  0  0  0  0  0  0
   -6.7407   12.3094   -6.9043 H   0  0  0  0  0  0  0  0  0  0  0  0
   -4.5143   13.2904   -6.4764 H   0  0  0  0  0  0  0  0  0  0  0  0
   -2.6607    9.7496   -8.0512 H   0  0  0  0  0  0  0  0  0  0  0  0
   -4.8939    8.7820   -8.4907 H   0  0  0  0  0  0  0  0  0  0  0  0
   -2.4321   14.1965   -6.1989 H   0  0  0  0  0  0  0  0  0  0  0  0
   -0.6606   10.5688   -7.5878 H   0  0  0  0  0  0  0  0  0  0  0  0
    0.9713   15.0036   -6.8329 H   0  0  0  0  0  0  0  0  0  0  0  0
   -0.2256   15.3572   -5.5409 H   0  0  0  0  0  0  0  0  0  0  0  0
    3.2752   13.4021   -4.8384 H   0  0  0  0  0  0  0  0  0  0  0  0
    1.7145   12.9160   -3.1533 H   0  0  0  0  0  0  0  0  0  0  0  0
    0.0563   13.5598   -3.4030 H   0  0  0  0  0  0  0  0  0  0  0  0
    0.6818   12.2530   -4.4649 H   0  0  0  0  0  0  0  0  0  0  0  0
    2.7591   15.1317   -3.3552 H   0  0  0  0  0  0  0  0  0  0  0  0
    2.4859   16.1517   -4.8082 H   0  0  0  0  0  0  0  0  0  0  0  0
    1.1747   15.9421   -3.5985 H   0  0  0  0  0  0  0  0  0  0  0  0
  1  2  2  0  0  0  0
  1  4  1  0  0  0  0
  1 13  1  0  0  0  0
  2  6  1  0  0  0  0
  3  4  2  0  0  0  0
  3  5  1  0  0  0  0
  5  6  2  0  0  0  0
  5  9  1  0  0  0  0
  6  7  1  0  0  0  0
  7  8  1  0  0  0  0
  7 10  2  3  0  0  0
  8  9  1  0  0  0  0
 10 15  1  0  0  0  0
 11 12  1  0  0  0  0
 11 13  1  0  0  0  0
 13 14  2  0  0  0  0
 15 16  2  0  0  0  0
 15 20  1  0  0  0  0
 16 17  1  0  0  0  0
 17 18  2  0  0  0  0
 18 19  1  0  0  0  0
 18 21  1  0  0  0  0
 19 20  2  0  0  0  0
 21 22  2  0  0  0  0
 21 25  1  0  0  0  0
 22 23  1  0  0  0  0
 23 24  1  0  0  0  0
 23 26  1  0  0  0  0
 24 25  2  0  0  0  0
 26 27  1  0  0  0  0
 27 28  1  0  0  0  0
 27 29  1  0  0  0  0
 27 30  1  0  0  0  0
  2 31  1  0  0  0  0
  3 32  1  0  0  0  0
  4 33  1  0  0  0  0
  8 34  1  0  0  0  0
  9 35  1  0  0  0  0
 10 36  1  0  0  0  0
 11 37  1  0  0  0  0
 12 38  1  0  0  0  0
 12 39  1  0  0  0  0
 12 40  1  0  0  0  0
 16 41  1  0  0  0  0
 17 42  1  0  0  0  0
 19 43  1  0  0  0  0
 20 44  1  0  0  0  0
 22 45  1  0  0  0  0
 25 46  1  0  0  0  0
 26 47  1  0  0  0  0
 26 48  1  0  0  0  0
 28 49  1  0  0  0  0
 29 50  1  0  0  0  0
 29 51  1  0  0  0  0
 29 52  1  0  0  0  0
 30 53  1  0  0  0  0
 30 54  1  0  0  0  0
 30 55  1  0  0  0  0
M  END
> <Name>
20

> <IC50[uM]>
0.016

$$$$
20
  -OEChem-05192314333D
 Structure written by MMmdl.
 55 58  0     0  0  0  0  0  0999 V2000
   -6.3740   12.3524  -12.0161 C   0  0  0  0  0  0  0  0  0  0  0  0
   -6.5100   11.8065  -10.7374 C   0  0  0  0  0  0  0  0  0  0  0  0
   -7.7222   10.5841  -13.0265 C   0  0  0  0  0  0  0  0  0  0  0  0
   -6.9887   11.7756  -13.1353 C   0  0  0  0  0  0  0  0  0  0  0  0
   -7.8163   10.0177  -11.7563 C   0  0  0  0  0  0  0  0  0  0  0  0
   -7.2425   10.6185  -10.6022 C   0  0  0  0  0  0  0  0  0  0  0  0
   -7.6172    9.7487   -9.5090 C   0  0  0  0  0  0  0  0  0  0  0  0
   -8.2846    8.7289   -9.9848 N   0  0  0  0  0  0  0  0  0  0  0  0
   -8.4176    8.8659  -11.2967 N   0  0  0  0  0  0  0  0  0  0  0  0
   -7.3368    9.8884   -8.0257 C   0  0  0  0  0  0  0  0  0  0  0  0
   -4.4023   13.6480  -11.4578 N   0  0  0  0  0  0  0  0  0  0  0  0
   -3.4623   14.7747  -11.4948 C   0  0  0  0  0  0  0  0  0  0  0  0
   -5.5331   13.6158  -12.1961 C   0  0  0  0  0  0  0  0  0  0  0  0
   -5.8776   14.5022  -12.9731 O   0  0  0  0  0  0  0  0  0  0  0  0
   -5.9585   10.4860   -7.7354 C   0  0  0  0  0  0  0  0  0  0  0  0
   -5.8494   11.7555   -7.1596 C   0  0  0  0  0  0  0  0  0  0  0  0
   -4.5968   12.3068   -6.9148 C   0  0  0  0  0  0  0  0  0  0  0  0
   -3.4468   11.5860   -7.2370 C   0  0  0  0  0  0  0  0  0  0  0  0
   -3.5513   10.3089   -7.8057 C   0  0  0  0  0  0  0  0  0  0  0  0
   -4.8090    9.7654   -8.0523 C   0  0  0  0  0  0  0  0  0  0  0  0
   -2.0901   12.1669   -6.9801 C   0  0  0  0  0  0  0  0  0  0  0  0
   -1.7479   13.4121   -6.4872 C   0  0  0  0  0  0  0  0  0  0  0  0
   -0.3990   13.4663   -6.4328 N   0  0  0  0  0  0  0  0  0  0  0  0
    0.1869   12.3691   -6.8386 N   0  0  0  0  0  0  0  0  0  0  0  0
   -0.8034   11.5628   -7.1902 C   0  0  0  0  0  0  0  0  0  0  0  0
    0.4389   14.5894   -5.9640 C   0  0  0  0  0  0  0  0  0  0  0  0
    1.5042   14.2139   -4.8744 C   0  0  0  0  0  0  0  0  0  0  0  0
    2.6302   13.6295   -5.4977 O   0  0  0  0  0  0  0  0  0  0  0  0
    0.9501   13.1612   -3.9053 C   0  0  0  0  0  0  0  0  0  0  0  0
    2.0179   15.4484   -4.1037 C   0  0  0  0  0  0  0  0  0  0  0  0
   -6.0641   12.2854   -9.8782 H   0  0  0  0  0  0  0  0  0  0  0  0
   -8.1913   10.1279  -13.8857 H   0  0  0  0  0  0  0  0  0  0  0  0
   -6.8965   12.2561  -14.0981 H   0  0  0  0  0  0  0  0  0  0  0  0
   -7.7893    7.8833   -9.7858 H   0  0  0  0  0  0  0  0  0  0  0  0
   -9.3915    8.8977  -11.5214 H   0  0  0  0  0  0  0  0  0  0  0  0
   -8.0357    9.5970   -7.2556 H   0  0  0  0  0  0  0  0  0  0  0  0
   -2.6221   14.5745  -10.8136 H   0  0  0  0  0  0  0  0  0  0  0  0
   -3.0817   14.9010  -12.5191 H   0  0  0  0  0  0  0  0  0  0  0  0
   -3.9787   15.6934  -11.1797 H   0  0  0  0  0  0  0  0  0  0  0  0
   -5.2393   15.2056  -12.9549 H   0  0  0  0  0  0  0  0  0  0  0  0
   -6.7407   12.3094   -6.9043 H   0  0  0  0  0  0  0  0  0  0  0  0
   -4.5143   13.2904   -6.4764 H   0  0  0  0  0  0  0  0  0  0  0  0
   -2.6607    9.7496   -8.0512 H   0  0  0  0  0  0  0  0  0  0  0  0
   -4.8939    8.7820   -8.4907 H   0  0  0  0  0  0  0  0  0  0  0  0
   -2.4321   14.1965   -6.1989 H   0  0  0  0  0  0  0  0  0  0  0  0
   -0.6606   10.5688   -7.5878 H   0  0  0  0  0  0  0  0  0  0  0  0
    0.9713   15.0036   -6.8329 H   0  0  0  0  0  0  0  0  0  0  0  0
   -0.2256   15.3572   -5.5409 H   0  0  0  0  0  0  0  0  0  0  0  0
    3.2752   13.4021   -4.8384 H   0  0  0  0  0  0  0  0  0  0  0  0
    1.7145   12.9160   -3.1533 H   0  0  0  0  0  0  0  0  0  0  0  0
    0.0563   13.5598   -3.4030 H   0  0  0  0  0  0  0  0  0  0  0  0
    0.6818   12.2530   -4.4649 H   0  0  0  0  0  0  0  0  0  0  0  0
    2.7591   15.1317   -3.3552 H   0  0  0  0  0  0  0  0  0  0  0  0
    2.4859   16.1517   -4.8082 H   0  0  0  0  0  0  0  0  0  0  0  0
    1.1747   15.9421   -3.5985 H   0  0  0  0  0  0  0  0  0  0  0  0
  1  2  2  0  0  0  0
  1  4  1  0  0  0  0
  1 13  1  0  0  0  0
  2  6  1  0  0  0  0
  3  4  2  0  0  0  0
  3  5  1  0  0  0  0
  5  6  2  0  0  0  0
  5  9  1  0  0  0  0
  6  7  1  0  0  0  0
  7  8  1  0  0  0  0
  7 10  2  3  0  0  0
  8  9  1  0  0  0  0
 10 15  1  0  0  0  0
 11 12  1  0  0  0  0
 11 13  2  0  0  0  0
 13 14  1  0  0  0  0
 15 16  2  0  0  0  0
 15 20  1  0  0  0  0
 16 17  1  0  0  0  0
 17 18  2  0  0  0  0
 18 19  1  0  0  0  0
 18 21  1  0  0  0  0
 19 20  2  0  0  0  0
 21 22  2  0  0  0  0
 21 25  1  0  0  0  0
 22 23  1  0  0  0  0
 23 24  1  0  0  0  0
 23 26  1  0  0  0  0
 24 25  2  0  0  0  0
 26 27  1  0  0  0  0
 27 28  1  0  0  0  0
 27 29  1  0  0  0  0
 27 30  1  0  0  0  0
  2 31  1  0  0  0  0
  3 32  1  0  0  0  0
  4 33  1  0  0  0  0
  8 34  1  0  0  0  0
  9 35  1  0  0  0  0
 10 36  1  0  0  0  0
 12 37  1  0  0  0  0
 12 38  1  0  0  0  0
 12 39  1  0  0  0  0
 14 40  1  0  0  0  0
 16 41  1  0  0  0  0
 17 42  1  0  0  0  0
 19 43  1  0  0  0  0
 20 44  1  0  0  0  0
 22 45  1  0  0  0  0
 25 46  1  0  0  0  0
 26 47  1  0  0  0  0
 26 48  1  0  0  0  0
 28 49  1  0  0  0  0
 29 50  1  0  0  0  0
 29 51  1  0  0  0  0
 29 52  1  0  0  0  0
 30 53  1  0  0  0  0
 30 54  1  0  0  0  0
 30 55  1  0  0  0  0
M  END
> <Name>
20

> <IC50[uM]>
0.016

$$$$
20
  -OEChem-05192314333D
 Structure written by MMmdl.
 55 58  0     1  0  0  0  0  0999 V2000
   -6.3740   12.3524  -12.0161 C   0  0  3  0  0  0  0  0  0  0  0  0
   -6.5100   11.8065  -10.7374 C   0  0  0  0  0  0  0  0  0  0  0  0
   -7.7222   10.5841  -13.0265 C   0  0  0  0  0  0  0  0  0  0  0  0
   -6.9887   11.7756  -13.1353 C   0  0  0  0  0  0  0  0  0  0  0  0
   -7.8163   10.0177  -11.7563 C   0  0  0  0  0  0  0  0  0  0  0  0
   -7.2425   10.6185  -10.6022 C   0  0  0  0  0  0  0  0  0  0  0  0
   -7.6172    9.7487   -9.5090 C   0  0  0  0  0  0  0  0  0  0  0  0
   -8.2846    8.7289   -9.9848 N   0  0  0  0  0  0  0  0  0  0  0  0
   -8.4176    8.8659  -11.2967 N   0  0  0  0  0  0  0  0  0  0  0  0
   -7.3368    9.8884   -8.0257 C   0  0  0  0  0  0  0  0  0  0  0  0
   -4.4023   13.6480  -11.4578 N   0  0  0  0  0  0  0  0  0  0  0  0
   -3.4623   14.7747  -11.4948 C   0  0  0  0  0  0  0  0  0  0  0  0
   -5.5331   13.6158  -12.1961 C   0  0  0  0  0  0  0  0  0  0  0  0
   -5.8776   14.5022  -12.9731 O   0  0  0  0  0  0  0  0  0  0  0  0
   -5.9585   10.4860   -7.7354 C   0  0  0  0  0  0  0  0  0  0  0  0
   -5.8494   11.7555   -7.1596 C   0  0  0  0  0  0  0  0  0  0  0  0
   -4.5968   12.3068   -6.9148 C   0  0  0  0  0  0  0  0  0  0  0  0
   -3.4468   11.5860   -7.2370 C   0  0  0  0  0  0  0  0  0  0  0  0
   -3.5513   10.3089   -7.8057 C   0  0  0  0  0  0  0  0  0  0  0  0
   -4.8090    9.7654   -8.0523 C   0  0  0  0  0  0  0  0  0  0  0  0
   -2.0901   12.1669   -6.9801 C   0  0  0  0  0  0  0  0  0  0  0  0
   -1.7479   13.4121   -6.4872 C   0  0  0  0  0  0  0  0  0  0  0  0
   -0.3990   13.4663   -6.4328 N   0  0  0  0  0  0  0  0  0  0  0  0
    0.1869   12.3691   -6.8386 N   0  0  0  0  0  0  0  0  0  0  0  0
   -0.8034   11.5628   -7.1902 C   0  0  0  0  0  0  0  0  0  0  0  0
    0.4389   14.5894   -5.9640 C   0  0  0  0  0  0  0  0  0  0  0  0
    1.5042   14.2139   -4.8744 C   0  0  0  0  0  0  0  0  0  0  0  0
    2.6302   13.6295   -5.4977 O   0  0  0  0  0  0  0  0  0  0  0  0
    0.9501   13.1612   -3.9053 C   0  0  0  0  0  0  0  0  0  0  0  0
    2.0179   15.4484   -4.1037 C   0  0  0  0  0  0  0  0  0  0  0  0
   -5.4811   11.7330  -12.1864 H   0  0  0  0  0  0  0  0  0  0  0  0
   -6.0641   12.2854   -9.8782 H   0  0  0  0  0  0  0  0  0  0  0  0
   -8.1913   10.1279  -13.8857 H   0  0  0  0  0  0  0  0  0  0  0  0
   -6.8965   12.2561  -14.0981 H   0  0  0  0  0  0  0  0  0  0  0  0
   -8.6387    7.9660   -9.4439 H   0  0  0  0  0  0  0  0  0  0  0  0
   -8.0357    9.5970   -7.2556 H   0  0  0  0  0  0  0  0  0  0  0  0
   -4.1971   12.8720  -10.8613 H   0  0  0  0  0  0  0  0  0  0  0  0
   -2.6221   14.5745  -10.8136 H   0  0  0  0  0  0  0  0  0  0  0  0
   -3.0817   14.9010  -12.5191 H   0  0  0  0  0  0  0  0  0  0  0  0
   -3.9787   15.6934  -11.1797 H   0  0  0  0  0  0  0  0  0  0  0  0
   -6.7407   12.3094   -6.9043 H   0  0  0  0  0  0  0  0  0  0  0  0
   -4.5143   13.2904   -6.4764 H   0  0  0  0  0  0  0  0  0  0  0  0
   -2.6607    9.7496   -8.0512 H   0  0  0  0  0  0  0  0  0  0  0  0
   -4.8939    8.7820   -8.4907 H   0  0  0  0  0  0  0  0  0  0  0  0
   -2.4321   14.1965   -6.1989 H   0  0  0  0  0  0  0  0  0  0  0  0
   -0.6606   10.5688   -7.5878 H   0  0  0  0  0  0  0  0  0  0  0  0
    0.9713   15.0036   -6.8329 H   0  0  0  0  0  0  0  0  0  0  0  0
   -0.2256   15.3572   -5.5409 H   0  0  0  0  0  0  0  0  0  0  0  0
    3.2752   13.4021   -4.8384 H   0  0  0  0  0  0  0  0  0  0  0  0
    1.7145   12.9160   -3.1533 H   0  0  0  0  0  0  0  0  0  0  0  0
    0.0563   13.5598   -3.4030 H   0  0  0  0  0  0  0  0  0  0  0  0
    0.6818   12.2530   -4.4649 H   0  0  0  0  0  0  0  0  0  0  0  0
    2.7591   15.1317   -3.3552 H   0  0  0  0  0  0  0  0  0  0  0  0
    2.4859   16.1517   -4.8082 H   0  0  0  0  0  0  0  0  0  0  0  0
    1.1747   15.9421   -3.5985 H   0  0  0  0  0  0  0  0  0  0  0  0
  1  2  1  0  0  0  0
  1  4  1  0  0  0  0
  1 13  1  0  0  0  0
  2  6  2  0  0  0  0
  3  4  2  0  0  0  0
  3  5  1  0  0  0  0
  5  6  1  0  0  0  0
  5  9  2  0  0  0  0
  6  7  1  0  0  0  0
  7  8  1  0  0  0  0
  7 10  2  3  0  0  0
  8  9  1  0  0  0  0
 10 15  1  0  0  0  0
 11 12  1  0  0  0  0
 11 13  1  0  0  0  0
 13 14  2  0  0  0  0
 15 16  2  0  0  0  0
 15 20  1  0  0  0  0
 16 17  1  0  0  0  0
 17 18  2  0  0  0  0
 18 19  1  0  0  0  0
 18 21  1  0  0  0  0
 19 20  2  0  0  0  0
 21 22  2  0  0  0  0
 21 25  1  0  0  0  0
 22 23  1  0  0  0  0
 23 24  1  0  0  0  0
 23 26  1  0  0  0  0
 24 25  2  0  0  0  0
 26 27  1  0  0  0  0
 27 28  1  0  0  0  0
 27 29  1  0  0  0  0
 27 30  1  0  0  0  0
  1 31  1  0  0  0  0
  2 32  1  0  0  0  0
  3 33  1  0  0  0  0
  4 34  1  0  0  0  0
  8 35  1  0  0  0  0
 10 36  1  0  0  0  0
 11 37  1  0  0  0  0
 12 38  1  0  0  0  0
 12 39  1  0  0  0  0
 12 40  1  0  0  0  0
 16 41  1  0  0  0  0
 17 42  1  0  0  0  0
 19 43  1  0  0  0  0
 20 44  1  0  0  0  0
 22 45  1  0  0  0  0
 25 46  1  0  0  0  0
 26 47  1  0  0  0  0
 26 48  1  0  0  0  0
 28 49  1  0  0  0  0
 29 50  1  0  0  0  0
 29 51  1  0  0  0  0
 29 52  1  0  0  0  0
 30 53  1  0  0  0  0
 30 54  1  0  0  0  0
 30 55  1  0  0  0  0
M  END
> <Name>
20

> <IC50[uM]>
0.016

$$$$
20
  -OEChem-05192314333D
 Structure written by MMmdl.
 55 58  0     0  0  0  0  0  0999 V2000
   -6.3740   12.3524  -12.0161 C   0  0  0  0  0  0  0  0  0  0  0  0
   -6.5100   11.8065  -10.7374 C   0  0  0  0  0  0  0  0  0  0  0  0
   -7.7222   10.5841  -13.0265 C   0  0  0  0  0  0  0  0  0  0  0  0
   -6.9887   11.7756  -13.1353 C   0  0  0  0  0  0  0  0  0  0  0  0
   -7.8163   10.0177  -11.7563 C   0  0  0  0  0  0  0  0  0  0  0  0
   -7.2425   10.6185  -10.6022 C   0  0  0  0  0  0  0  0  0  0  0  0
   -7.6172    9.7487   -9.5090 C   0  0  0  0  0  0  0  0  0  0  0  0
   -8.2846    8.7289   -9.9848 N   0  0  0  0  0  0  0  0  0  0  0  0
   -8.4176    8.8659  -11.2967 N   0  0  0  0  0  0  0  0  0  0  0  0
   -7.3368    9.8884   -8.0257 C   0  0  0  0  0  0  0  0  0  0  0  0
   -4.4023   13.6480  -11.4578 N   0  0  0  0  0  0  0  0  0  0  0  0
   -3.4623   14.7747  -11.4948 C   0  0  0  0  0  0  0  0  0  0  0  0
   -5.5331   13.6158  -12.1961 C   0  0  0  0  0  0  0  0  0  0  0  0
   -5.8776   14.5022  -12.9731 O   0  0  0  0  0  0  0  0  0  0  0  0
   -5.9585   10.4860   -7.7354 C   0  0  0  0  0  0  0  0  0  0  0  0
   -5.8494   11.7555   -7.1596 C   0  0  0  0  0  0  0  0  0  0  0  0
   -4.5968   12.3068   -6.9148 C   0  0  0  0  0  0  0  0  0  0  0  0
   -3.4468   11.5860   -7.2370 C   0  0  0  0  0  0  0  0  0  0  0  0
   -3.5513   10.3089   -7.8057 C   0  0  0  0  0  0  0  0  0  0  0  0
   -4.8090    9.7654   -8.0523 C   0  0  0  0  0  0  0  0  0  0  0  0
   -2.0901   12.1669   -6.9801 C   0  0  0  0  0  0  0  0  0  0  0  0
   -1.7479   13.4121   -6.4872 C   0  0  0  0  0  0  0  0  0  0  0  0
   -0.3990   13.4663   -6.4328 N   0  0  0  0  0  0  0  0  0  0  0  0
    0.1869   12.3691   -6.8386 N   0  0  0  0  0  0  0  0  0  0  0  0
   -0.8034   11.5628   -7.1902 C   0  0  0  0  0  0  0  0  0  0  0  0
    0.4389   14.5894   -5.9640 C   0  0  0  0  0  0  0  0  0  0  0  0
    1.5042   14.2139   -4.8744 C   0  0  0  0  0  0  0  0  0  0  0  0
    2.6302   13.6295   -5.4977 O   0  0  0  0  0  0  0  0  0  0  0  0
    0.9501   13.1612   -3.9053 C   0  0  0  0  0  0  0  0  0  0  0  0
    2.0179   15.4484   -4.1037 C   0  0  0  0  0  0  0  0  0  0  0  0
   -6.0641   12.2854   -9.8782 H   0  0  0  0  0  0  0  0  0  0  0  0
   -8.7448   10.7898  -13.3757 H   0  0  0  0  0  0  0  0  0  0  0  0
   -7.2513    9.8419  -13.6878 H   0  0  0  0  0  0  0  0  0  0  0  0
   -6.8965   12.2561  -14.0981 H   0  0  0  0  0  0  0  0  0  0  0  0
   -8.6387    7.9660   -9.4439 H   0  0  0  0  0  0  0  0  0  0  0  0
   -8.0357    9.5970   -7.2556 H   0  0  0  0  0  0  0  0  0  0  0  0
   -4.1971   12.8720  -10.8613 H   0  0  0  0  0  0  0  0  0  0  0  0
   -2.6221   14.5745  -10.8136 H   0  0  0  0  0  0  0  0  0  0  0  0
   -3.0817   14.9010  -12.5191 H   0  0  0  0  0  0  0  0  0  0  0  0
   -3.9787   15.6934  -11.1797 H   0  0  0  0  0  0  0  0  0  0  0  0
   -6.7407   12.3094   -6.9043 H   0  0  0  0  0  0  0  0  0  0  0  0
   -4.5143   13.2904   -6.4764 H   0  0  0  0  0  0  0  0  0  0  0  0
   -2.6607    9.7496   -8.0512 H   0  0  0  0  0  0  0  0  0  0  0  0
   -4.8939    8.7820   -8.4907 H   0  0  0  0  0  0  0  0  0  0  0  0
   -2.4321   14.1965   -6.1989 H   0  0  0  0  0  0  0  0  0  0  0  0
   -0.6606   10.5688   -7.5878 H   0  0  0  0  0  0  0  0  0  0  0  0
    0.9713   15.0036   -6.8329 H   0  0  0  0  0  0  0  0  0  0  0  0
   -0.2256   15.3572   -5.5409 H   0  0  0  0  0  0  0  0  0  0  0  0
    3.2752   13.4021   -4.8384 H   0  0  0  0  0  0  0  0  0  0  0  0
    1.7145   12.9160   -3.1533 H   0  0  0  0  0  0  0  0  0  0  0  0
    0.0563   13.5598   -3.4030 H   0  0  0  0  0  0  0  0  0  0  0  0
    0.6818   12.2530   -4.4649 H   0  0  0  0  0  0  0  0  0  0  0  0
    2.7591   15.1317   -3.3552 H   0  0  0  0  0  0  0  0  0  0  0  0
    2.4859   16.1517   -4.8082 H   0  0  0  0  0  0  0  0  0  0  0  0
    1.1747   15.9421   -3.5985 H   0  0  0  0  0  0  0  0  0  0  0  0
  1  2  1  0  0  0  0
  1  4  2  0  0  0  0
  1 13  1  0  0  0  0
  2  6  2  0  0  0  0
  3  4  1  0  0  0  0
  3  5  1  0  0  0  0
  5  6  1  0  0  0  0
  5  9  2  0  0  0  0
  6  7  1  0  0  0  0
  7  8  1  0  0  0  0
  7 10  2  3  0  0  0
  8  9  1  0  0  0  0
 10 15  1  0  0  0  0
 11 12  1  0  0  0  0
 11 13  1  0  0  0  0
 13 14  2  0  0  0  0
 15 16  2  0  0  0  0
 15 20  1  0  0  0  0
 16 17  1  0  0  0  0
 17 18  2  0  0  0  0
 18 19  1  0  0  0  0
 18 21  1  0  0  0  0
 19 20  2  0  0  0  0
 21 22  2  0  0  0  0
 21 25  1  0  0  0  0
 22 23  1  0  0  0  0
 23 24  1  0  0  0  0
 23 26  1  0  0  0  0
 24 25  2  0  0  0  0
 26 27  1  0  0  0  0
 27 28  1  0  0  0  0
 27 29  1  0  0  0  0
 27 30  1  0  0  0  0
  2 31  1  0  0  0  0
  3 32  1  0  0  0  0
  3 33  1  0  0  0  0
  4 34  1  0  0  0  0
  8 35  1  0  0  0  0
 10 36  1  0  0  0  0
 11 37  1  0  0  0  0
 12 38  1  0  0  0  0
 12 39  1  0  0  0  0
 12 40  1  0  0  0  0
 16 41  1  0  0  0  0
 17 42  1  0  0  0  0
 19 43  1  0  0  0  0
 20 44  1  0  0  0  0
 22 45  1  0  0  0  0
 25 46  1  0  0  0  0
 26 47  1  0  0  0  0
 26 48  1  0  0  0  0
 28 49  1  0  0  0  0
 29 50  1  0  0  0  0
 29 51  1  0  0  0  0
 29 52  1  0  0  0  0
 30 53  1  0  0  0  0
 30 54  1  0  0  0  0
 30 55  1  0  0  0  0
M  END
> <Name>
20

> <IC50[uM]>
0.016

$$$$
20
  -OEChem-05192314333D
 Structure written by MMmdl.
 55 58  0     1  0  0  0  0  0999 V2000
   -6.3740   12.3524  -12.0161 C   0  0  3  0  0  0  0  0  0  0  0  0
   -6.5100   11.8065  -10.7374 C   0  0  0  0  0  0  0  0  0  0  0  0
   -7.7222   10.5841  -13.0265 C   0  0  0  0  0  0  0  0  0  0  0  0
   -6.9887   11.7756  -13.1353 C   0  0  0  0  0  0  0  0  0  0  0  0
   -7.8163   10.0177  -11.7563 C   0  0  0  0  0  0  0  0  0  0  0  0
   -7.2425   10.6185  -10.6022 C   0  0  0  0  0  0  0  0  0  0  0  0
   -7.6172    9.7487   -9.5090 C   0  0  0  0  0  0  0  0  0  0  0  0
   -8.2846    8.7289   -9.9848 N   0  0  0  0  0  0  0  0  0  0  0  0
   -8.4176    8.8659  -11.2967 N   0  0  0  0  0  0  0  0  0  0  0  0
   -7.3368    9.8884   -8.0257 C   0  0  0  0  0  0  0  0  0  0  0  0
   -4.4023   13.6480  -11.4578 N   0  0  0  0  0  0  0  0  0  0  0  0
   -3.4623   14.7747  -11.4948 C   0  0  0  0  0  0  0  0  0  0  0  0
   -5.5331   13.6158  -12.1961 C   0  0  0  0  0  0  0  0  0  0  0  0
   -5.8776   14.5022  -12.9731 O   0  0  0  0  0  0  0  0  0  0  0  0
   -5.9585   10.4860   -7.7354 C   0  0  0  0  0  0  0  0  0  0  0  0
   -5.8494   11.7555   -7.1596 C   0  0  0  0  0  0  0  0  0  0  0  0
   -4.5968   12.3068   -6.9148 C   0  0  0  0  0  0  0  0  0  0  0  0
   -3.4468   11.5860   -7.2370 C   0  0  0  0  0  0  0  0  0  0  0  0
   -3.5513   10.3089   -7.8057 C   0  0  0  0  0  0  0  0  0  0  0  0
   -4.8090    9.7654   -8.0523 C   0  0  0  0  0  0  0  0  0  0  0  0
   -2.0901   12.1669   -6.9801 C   0  0  0  0  0  0  0  0  0  0  0  0
   -1.7479   13.4121   -6.4872 C   0  0  0  0  0  0  0  0  0  0  0  0
   -0.3990   13.4663   -6.4328 N   0  0  0  0  0  0  0  0  0  0  0  0
    0.1869   12.3691   -6.8386 N   0  0  0  0  0  0  0  0  0  0  0  0
   -0.8034   11.5628   -7.1902 C   0  0  0  0  0  0  0  0  0  0  0  0
    0.4389   14.5894   -5.9640 C   0  0  0  0  0  0  0  0  0  0  0  0
    1.5042   14.2139   -4.8744 C   0  0  0  0  0  0  0  0  0  0  0  0
    2.6302   13.6295   -5.4977 O   0  0  0  0  0  0  0  0  0  0  0  0
    0.9501   13.1612   -3.9053 C   0  0  0  0  0  0  0  0  0  0  0  0
    2.0179   15.4484   -4.1037 C   0  0  0  0  0  0  0  0  0  0  0  0
   -5.4811   11.7330  -12.1864 H   0  0  0  0  0  0  0  0  0  0  0  0
   -6.0641   12.2854   -9.8782 H   0  0  0  0  0  0  0  0  0  0  0  0
   -8.1913   10.1279  -13.8857 H   0  0  0  0  0  0  0  0  0  0  0  0
   -6.8965   12.2561  -14.0981 H   0  0  0  0  0  0  0  0  0  0  0  0
   -8.6387    7.9660   -9.4439 H   0  0  0  0  0  0  0  0  0  0  0  0
   -8.0357    9.5970   -7.2556 H   0  0  0  0  0  0  0  0  0  0  0  0
   -2.6221   14.5745  -10.8136 H   0  0  0  0  0  0  0  0  0  0  0  0
   -3.0817   14.9010  -12.5191 H   0  0  0  0  0  0  0  0  0  0  0  0
   -3.9787   15.6934  -11.1797 H   0  0  0  0  0  0  0  0  0  0  0  0
   -5.2393   15.2056  -12.9549 H   0  0  0  0  0  0  0  0  0  0  0  0
   -6.7407   12.3094   -6.9043 H   0  0  0  0  0  0  0  0  0  0  0  0
   -4.5143   13.2904   -6.4764 H   0  0  0  0  0  0  0  0  0  0  0  0
   -2.6607    9.7496   -8.0512 H   0  0  0  0  0  0  0  0  0  0  0  0
   -4.8939    8.7820   -8.4907 H   0  0  0  0  0  0  0  0  0  0  0  0
   -2.4321   14.1965   -6.1989 H   0  0  0  0  0  0  0  0  0  0  0  0
   -0.6606   10.5688   -7.5878 H   0  0  0  0  0  0  0  0  0  0  0  0
    0.9713   15.0036   -6.8329 H   0  0  0  0  0  0  0  0  0  0  0  0
   -0.2256   15.3572   -5.5409 H   0  0  0  0  0  0  0  0  0  0  0  0
    3.2752   13.4021   -4.8384 H   0  0  0  0  0  0  0  0  0  0  0  0
    1.7145   12.9160   -3.1533 H   0  0  0  0  0  0  0  0  0  0  0  0
    0.0563   13.5598   -3.4030 H   0  0  0  0  0  0  0  0  0  0  0  0
    0.6818   12.2530   -4.4649 H   0  0  0  0  0  0  0  0  0  0  0  0
    2.7591   15.1317   -3.3552 H   0  0  0  0  0  0  0  0  0  0  0  0
    2.4859   16.1517   -4.8082 H   0  0  0  0  0  0  0  0  0  0  0  0
    1.1747   15.9421   -3.5985 H   0  0  0  0  0  0  0  0  0  0  0  0
  1  2  1  0  0  0  0
  1  4  1  0  0  0  0
  1 13  1  0  0  0  0
  2  6  2  0  0  0  0
  3  4  2  0  0  0  0
  3  5  1  0  0  0  0
  5  6  1  0  0  0  0
  5  9  2  0  0  0  0
  6  7  1  0  0  0  0
  7  8  1  0  0  0  0
  7 10  2  3  0  0  0
  8  9  1  0  0  0  0
 10 15  1  0  0  0  0
 11 12  1  0  0  0  0
 11 13  2  0  0  0  0
 13 14  1  0  0  0  0
 15 16  2  0  0  0  0
 15 20  1  0  0  0  0
 16 17  1  0  0  0  0
 17 18  2  0  0  0  0
 18 19  1  0  0  0  0
 18 21  1  0  0  0  0
 19 20  2  0  0  0  0
 21 22  2  0  0  0  0
 21 25  1  0  0  0  0
 22 23  1  0  0  0  0
 23 24  1  0  0  0  0
 23 26  1  0  0  0  0
 24 25  2  0  0  0  0
 26 27  1  0  0  0  0
 27 28  1  0  0  0  0
 27 29  1  0  0  0  0
 27 30  1  0  0  0  0
  1 31  1  0  0  0  0
  2 32  1  0  0  0  0
  3 33  1  0  0  0  0
  4 34  1  0  0  0  0
  8 35  1  0  0  0  0
 10 36  1  0  0  0  0
 12 37  1  0  0  0  0
 12 38  1  0  0  0  0
 12 39  1  0  0  0  0
 14 40  1  0  0  0  0
 16 41  1  0  0  0  0
 17 42  1  0  0  0  0
 19 43  1  0  0  0  0
 20 44  1  0  0  0  0
 22 45  1  0  0  0  0
 25 46  1  0  0  0  0
 26 47  1  0  0  0  0
 26 48  1  0  0  0  0
 28 49  1  0  0  0  0
 29 50  1  0  0  0  0
 29 51  1  0  0  0  0
 29 52  1  0  0  0  0
 30 53  1  0  0  0  0
 30 54  1  0  0  0  0
 30 55  1  0  0  0  0
M  END
> <Name>
20

> <IC50[uM]>
0.016

$$$$
20
  -OEChem-05192314333D
 Structure written by MMmdl.
 55 58  0     0  0  0  0  0  0999 V2000
   -6.3740   12.3524  -12.0161 C   0  0  0  0  0  0  0  0  0  0  0  0
   -6.5100   11.8065  -10.7374 C   0  0  0  0  0  0  0  0  0  0  0  0
   -7.7222   10.5841  -13.0265 C   0  0  0  0  0  0  0  0  0  0  0  0
   -6.9887   11.7756  -13.1353 C   0  0  0  0  0  0  0  0  0  0  0  0
   -7.8163   10.0177  -11.7563 C   0  0  0  0  0  0  0  0  0  0  0  0
   -7.2425   10.6185  -10.6022 C   0  0  0  0  0  0  0  0  0  0  0  0
   -7.6172    9.7487   -9.5090 C   0  0  0  0  0  0  0  0  0  0  0  0
   -8.2846    8.7289   -9.9848 N   0  0  0  0  0  0  0  0  0  0  0  0
   -8.4176    8.8659  -11.2967 N   0  0  0  0  0  0  0  0  0  0  0  0
   -7.3368    9.8884   -8.0257 C   0  0  0  0  0  0  0  0  0  0  0  0
   -4.4023   13.6480  -11.4578 N   0  0  0  0  0  0  0  0  0  0  0  0
   -3.4623   14.7747  -11.4948 C   0  0  0  0  0  0  0  0  0  0  0  0
   -5.5331   13.6158  -12.1961 C   0  0  0  0  0  0  0  0  0  0  0  0
   -5.8776   14.5022  -12.9731 O   0  0  0  0  0  0  0  0  0  0  0  0
   -5.9585   10.4860   -7.7354 C   0  0  0  0  0  0  0  0  0  0  0  0
   -5.8494   11.7555   -7.1596 C   0  0  0  0  0  0  0  0  0  0  0  0
   -4.5968   12.3068   -6.9148 C   0  0  0  0  0  0  0  0  0  0  0  0
   -3.4468   11.5860   -7.2370 C   0  0  0  0  0  0  0  0  0  0  0  0
   -3.5513   10.3089   -7.8057 C   0  0  0  0  0  0  0  0  0  0  0  0
   -4.8090    9.7654   -8.0523 C   0  0  0  0  0  0  0  0  0  0  0  0
   -2.0901   12.1669   -6.9801 C   0  0  0  0  0  0  0  0  0  0  0  0
   -1.7479   13.4121   -6.4872 C   0  0  0  0  0  0  0  0  0  0  0  0
   -0.3990   13.4663   -6.4328 N   0  0  0  0  0  0  0  0  0  0  0  0
    0.1869   12.3691   -6.8386 N   0  0  0  0  0  0  0  0  0  0  0  0
   -0.8034   11.5628   -7.1902 C   0  0  0  0  0  0  0  0  0  0  0  0
    0.4389   14.5894   -5.9640 C   0  0  0  0  0  0  0  0  0  0  0  0
    1.5042   14.2139   -4.8744 C   0  0  0  0  0  0  0  0  0  0  0  0
    2.6302   13.6295   -5.4977 O   0  0  0  0  0  0  0  0  0  0  0  0
    0.9501   13.1612   -3.9053 C   0  0  0  0  0  0  0  0  0  0  0  0
    2.0179   15.4484   -4.1037 C   0  0  0  0  0  0  0  0  0  0  0  0
   -6.0641   12.2854   -9.8782 H   0  0  0  0  0  0  0  0  0  0  0  0
   -8.7448   10.7898  -13.3757 H   0  0  0  0  0  0  0  0  0  0  0  0
   -7.2513    9.8419  -13.6878 H   0  0  0  0  0  0  0  0  0  0  0  0
   -6.8965   12.2561  -14.0981 H   0  0  0  0  0  0  0  0  0  0  0  0
   -8.6387    7.9660   -9.4439 H   0  0  0  0  0  0  0  0  0  0  0  0
   -8.0357    9.5970   -7.2556 H   0  0  0  0  0  0  0  0  0  0  0  0
   -2.6221   14.5745  -10.8136 H   0  0  0  0  0  0  0  0  0  0  0  0
   -3.0817   14.9010  -12.5191 H   0  0  0  0  0  0  0  0  0  0  0  0
   -3.9787   15.6934  -11.1797 H   0  0  0  0  0  0  0  0  0  0  0  0
   -5.2393   15.2056  -12.9549 H   0  0  0  0  0  0  0  0  0  0  0  0
   -6.7407   12.3094   -6.9043 H   0  0  0  0  0  0  0  0  0  0  0  0
   -4.5143   13.2904   -6.4764 H   0  0  0  0  0  0  0  0  0  0  0  0
   -2.6607    9.7496   -8.0512 H   0  0  0  0  0  0  0  0  0  0  0  0
   -4.8939    8.7820   -8.4907 H   0  0  0  0  0  0  0  0  0  0  0  0
   -2.4321   14.1965   -6.1989 H   0  0  0  0  0  0  0  0  0  0  0  0
   -0.6606   10.5688   -7.5878 H   0  0  0  0  0  0  0  0  0  0  0  0
    0.9713   15.0036   -6.8329 H   0  0  0  0  0  0  0  0  0  0  0  0
   -0.2256   15.3572   -5.5409 H   0  0  0  0  0  0  0  0  0  0  0  0
    3.2752   13.4021   -4.8384 H   0  0  0  0  0  0  0  0  0  0  0  0
    1.7145   12.9160   -3.1533 H   0  0  0  0  0  0  0  0  0  0  0  0
    0.0563   13.5598   -3.4030 H   0  0  0  0  0  0  0  0  0  0  0  0
    0.6818   12.2530   -4.4649 H   0  0  0  0  0  0  0  0  0  0  0  0
    2.7591   15.1317   -3.3552 H   0  0  0  0  0  0  0  0  0  0  0  0
    2.4859   16.1517   -4.8082 H   0  0  0  0  0  0  0  0  0  0  0  0
    1.1747   15.9421   -3.5985 H   0  0  0  0  0  0  0  0  0  0  0  0
  1  2  1  0  0  0  0
  1  4  2  0  0  0  0
  1 13  1  0  0  0  0
  2  6  2  0  0  0  0
  3  4  1  0  0  0  0
  3  5  1  0  0  0  0
  5  6  1  0  0  0  0
  5  9  2  0  0  0  0
  6  7  1  0  0  0  0
  7  8  1  0  0  0  0
  7 10  2  3  0  0  0
  8  9  1  0  0  0  0
 10 15  1  0  0  0  0
 11 12  1  0  0  0  0
 11 13  2  0  0  0  0
 13 14  1  0  0  0  0
 15 16  2  0  0  0  0
 15 20  1  0  0  0  0
 16 17  1  0  0  0  0
 17 18  2  0  0  0  0
 18 19  1  0  0  0  0
 18 21  1  0  0  0  0
 19 20  2  0  0  0  0
 21 22  2  0  0  0  0
 21 25  1  0  0  0  0
 22 23  1  0  0  0  0
 23 24  1  0  0  0  0
 23 26  1  0  0  0  0
 24 25  2  0  0  0  0
 26 27  1  0  0  0  0
 27 28  1  0  0  0  0
 27 29  1  0  0  0  0
 27 30  1  0  0  0  0
  2 31  1  0  0  0  0
  3 32  1  0  0  0  0
  3 33  1  0  0  0  0
  4 34  1  0  0  0  0
  8 35  1  0  0  0  0
 10 36  1  0  0  0  0
 12 37  1  0  0  0  0
 12 38  1  0  0  0  0
 12 39  1  0  0  0  0
 14 40  1  0  0  0  0
 16 41  1  0  0  0  0
 17 42  1  0  0  0  0
 19 43  1  0  0  0  0
 20 44  1  0  0  0  0
 22 45  1  0  0  0  0
 25 46  1  0  0  0  0
 26 47  1  0  0  0  0
 26 48  1  0  0  0  0
 28 49  1  0  0  0  0
 29 50  1  0  0  0  0
 29 51  1  0  0  0  0
 29 52  1  0  0  0  0
 30 53  1  0  0  0  0
 30 54  1  0  0  0  0
 30 55  1  0  0  0  0
M  END
> <Name>
20

> <IC50[uM]>
0.016

$$$$
20
  -OEChem-05192314333D
 Structure written by MMmdl.
 55 58  0     1  0  0  0  0  0999 V2000
   -6.3740   12.3524  -12.0161 C   0  0  0  0  0  0  0  0  0  0  0  0
   -6.5100   11.8065  -10.7374 C   0  0  0  0  0  0  0  0  0  0  0  0
   -7.7222   10.5841  -13.0265 C   0  0  0  0  0  0  0  0  0  0  0  0
   -6.9887   11.7756  -13.1353 C   0  0  0  0  0  0  0  0  0  0  0  0
   -7.8163   10.0177  -11.7563 C   0  0  0  0  0  0  0  0  0  0  0  0
   -7.2425   10.6185  -10.6022 C   0  0  0  0  0  0  0  0  0  0  0  0
   -7.6172    9.7487   -9.5090 C   0  0  0  0  0  0  0  0  0  0  0  0
   -8.2846    8.7289   -9.9848 N   0  0  0  0  0  0  0  0  0  0  0  0
   -8.4176    8.8659  -11.2967 N   0  0  0  0  0  0  0  0  0  0  0  0
   -7.3368    9.8884   -8.0257 C   0  0  0  0  0  0  0  0  0  0  0  0
   -4.4023   13.6480  -11.4578 N   0  0  0  0  0  0  0  0  0  0  0  0
   -3.4623   14.7747  -11.4948 C   0  0  0  0  0  0  0  0  0  0  0  0
   -5.5331   13.6158  -12.1961 C   0  0  0  0  0  0  0  0  0  0  0  0
   -5.8776   14.5022  -12.9731 O   0  0  0  0  0  0  0  0  0  0  0  0
   -5.9585   10.4860   -7.7354 C   0  0  0  0  0  0  0  0  0  0  0  0
   -5.8494   11.7555   -7.1596 C   0  0  0  0  0  0  0  0  0  0  0  0
   -4.5968   12.3068   -6.9148 C   0  0  0  0  0  0  0  0  0  0  0  0
   -3.4468   11.5860   -7.2370 C   0  0  0  0  0  0  0  0  0  0  0  0
   -3.5513   10.3089   -7.8057 C   0  0  0  0  0  0  0  0  0  0  0  0
   -4.8090    9.7654   -8.0523 C   0  0  0  0  0  0  0  0  0  0  0  0
   -2.0901   12.1669   -6.9801 C   0  0  0  0  0  0  0  0  0  0  0  0
   -1.7479   13.4121   -6.4872 C   0  0  0  0  0  0  0  0  0  0  0  0
   -0.3990   13.4663   -6.4328 N   0  0  3  0  0  0  0  0  0  0  0  0
    0.1869   12.3691   -6.8386 N   0  0  0  0  0  0  0  0  0  0  0  0
   -0.8034   11.5628   -7.1902 C   0  0  0  0  0  0  0  0  0  0  0  0
    0.4389   14.5894   -5.9640 C   0  0  0  0  0  0  0  0  0  0  0  0
    1.5042   14.2139   -4.8744 C   0  0  0  0  0  0  0  0  0  0  0  0
    2.6302   13.6295   -5.4977 O   0  0  0  0  0  0  0  0  0  0  0  0
    0.9501   13.1612   -3.9053 C   0  0  0  0  0  0  0  0  0  0  0  0
    2.0179   15.4484   -4.1037 C   0  0  0  0  0  0  0  0  0  0  0  0
   -6.0641   12.2854   -9.8782 H   0  0  0  0  0  0  0  0  0  0  0  0
   -8.1913   10.1279  -13.8857 H   0  0  0  0  0  0  0  0  0  0  0  0
   -6.8965   12.2561  -14.0981 H   0  0  0  0  0  0  0  0  0  0  0  0
   -8.6387    7.9660   -9.4439 H   0  0  0  0  0  0  0  0  0  0  0  0
   -8.0357    9.5970   -7.2556 H   0  0  0  0  0  0  0  0  0  0  0  0
   -4.1971   12.8720  -10.8613 H   0  0  0  0  0  0  0  0  0  0  0  0
   -2.6221   14.5745  -10.8136 H   0  0  0  0  0  0  0  0  0  0  0  0
   -3.0817   14.9010  -12.5191 H   0  0  0  0  0  0  0  0  0  0  0  0
   -3.9787   15.6934  -11.1797 H   0  0  0  0  0  0  0  0  0  0  0  0
   -6.7407   12.3094   -6.9043 H   0  0  0  0  0  0  0  0  0  0  0  0
   -4.5143   13.2904   -6.4764 H   0  0  0  0  0  0  0  0  0  0  0  0
   -2.6607    9.7496   -8.0512 H   0  0  0  0  0  0  0  0  0  0  0  0
   -4.8939    8.7820   -8.4907 H   0  0  0  0  0  0  0  0  0  0  0  0
   -2.1296   14.1989   -7.1545 H   0  0  0  0  0  0  0  0  0  0  0  0
   -2.1709   13.5478   -5.4809 H   0  0  0  0  0  0  0  0  0  0  0  0
   -0.6606   10.5688   -7.5878 H   0  0  0  0  0  0  0  0  0  0  0  0
    0.9713   15.0036   -6.8329 H   0  0  0  0  0  0  0  0  0  0  0  0
   -0.2256   15.3572   -5.5409 H   0  0  0  0  0  0  0  0  0  0  0  0
    3.2752   13.4021   -4.8384 H   0  0  0  0  0  0  0  0  0  0  0  0
    1.7145   12.9160   -3.1533 H   0  0  0  0  0  0  0  0  0  0  0  0
    0.0563   13.5598   -3.4030 H   0  0  0  0  0  0  0  0  0  0  0  0
    0.6818   12.2530   -4.4649 H   0  0  0  0  0  0  0  0  0  0  0  0
    2.7591   15.1317   -3.3552 H   0  0  0  0  0  0  0  0  0  0  0  0
    2.4859   16.1517   -4.8082 H   0  0  0  0  0  0  0  0  0  0  0  0
    1.1747   15.9421   -3.5985 H   0  0  0  0  0  0  0  0  0  0  0  0
  1  2  2  0  0  0  0
  1  4  1  0  0  0  0
  1 13  1  0  0  0  0
  2  6  1  0  0  0  0
  3  4  2  0  0  0  0
  3  5  1  0  0  0  0
  5  6  1  0  0  0  0
  5  9  2  0  0  0  0
  6  7  2  0  0  0  0
  7  8  1  0  0  0  0
  7 10  1  0  0  0  0
  8  9  1  0  0  0  0
 10 15  2  0  0  0  0
 11 12  1  0  0  0  0
 11 13  1  0  0  0  0
 13 14  2  0  0  0  0
 15 16  1  0  0  0  0
 15 20  1  0  0  0  0
 16 17  2  0  0  0  0
 17 18  1  0  0  0  0
 18 19  1  0  0  0  0
 18 21  2  0  0  0  0
 19 20  2  0  0  0  0
 21 22  1  0  0  0  0
 21 25  1  0  0  0  0
 22 23  1  0  0  0  0
 23 24  1  0  0  0  0
 23 26  1  0  0  0  0
 24 25  2  0  0  0  0
 26 27  1  0  0  0  0
 27 28  1  0  0  0  0
 27 29  1  0  0  0  0
 27 30  1  0  0  0  0
  2 31  1  0  0  0  0
  3 32  1  0  0  0  0
  4 33  1  0  0  0  0
  8 34  1  0  0  0  0
 10 35  1  0  0  0  0
 11 36  1  0  0  0  0
 12 37  1  0  0  0  0
 12 38  1  0  0  0  0
 12 39  1  0  0  0  0
 16 40  1  0  0  0  0
 17 41  1  0  0  0  0
 19 42  1  0  0  0  0
 20 43  1  0  0  0  0
 22 44  1  0  0  0  0
 22 45  1  0  0  0  0
 25 46  1  0  0  0  0
 26 47  1  0  0  0  0
 26 48  1  0  0  0  0
 28 49  1  0  0  0  0
 29 50  1  0  0  0  0
 29 51  1  0  0  0  0
 29 52  1  0  0  0  0
 30 53  1  0  0  0  0
 30 54  1  0  0  0  0
 30 55  1  0  0  0  0
M  END
> <Name>
20

> <IC50[uM]>
0.016

$$$$
20
  -OEChem-05192314333D
 Structure written by MMmdl.
 55 58  0     1  0  0  0  0  0999 V2000
   -6.3740   12.3524  -12.0161 C   0  0  0  0  0  0  0  0  0  0  0  0
   -6.5100   11.8065  -10.7374 C   0  0  0  0  0  0  0  0  0  0  0  0
   -7.7222   10.5841  -13.0265 C   0  0  0  0  0  0  0  0  0  0  0  0
   -6.9887   11.7756  -13.1353 C   0  0  0  0  0  0  0  0  0  0  0  0
   -7.8163   10.0177  -11.7563 C   0  0  0  0  0  0  0  0  0  0  0  0
   -7.2425   10.6185  -10.6022 C   0  0  0  0  0  0  0  0  0  0  0  0
   -7.6172    9.7487   -9.5090 C   0  0  0  0  0  0  0  0  0  0  0  0
   -8.2846    8.7289   -9.9848 N   0  0  0  0  0  0  0  0  0  0  0  0
   -8.4176    8.8659  -11.2967 N   0  0  0  0  0  0  0  0  0  0  0  0
   -7.3368    9.8884   -8.0257 C   0  0  0  0  0  0  0  0  0  0  0  0
   -4.4023   13.6480  -11.4578 N   0  0  0  0  0  0  0  0  0  0  0  0
   -3.4623   14.7747  -11.4948 C   0  0  0  0  0  0  0  0  0  0  0  0
   -5.5331   13.6158  -12.1961 C   0  0  0  0  0  0  0  0  0  0  0  0
   -5.8776   14.5022  -12.9731 O   0  0  0  0  0  0  0  0  0  0  0  0
   -5.9585   10.4860   -7.7354 C   0  0  0  0  0  0  0  0  0  0  0  0
   -5.8494   11.7555   -7.1596 C   0  0  0  0  0  0  0  0  0  0  0  0
   -4.5968   12.3068   -6.9148 C   0  0  0  0  0  0  0  0  0  0  0  0
   -3.4468   11.5860   -7.2370 C   0  0  0  0  0  0  0  0  0  0  0  0
   -3.5513   10.3089   -7.8057 C   0  0  0  0  0  0  0  0  0  0  0  0
   -4.8090    9.7654   -8.0523 C   0  0  0  0  0  0  0  0  0  0  0  0
   -2.0901   12.1669   -6.9801 C   0  0  0  0  0  0  0  0  0  0  0  0
   -1.7479   13.4121   -6.4872 C   0  0  0  0  0  0  0  0  0  0  0  0
   -0.3990   13.4663   -6.4328 N   0  0  3  0  0  0  0  0  0  0  0  0
    0.1869   12.3691   -6.8386 N   0  0  0  0  0  0  0  0  0  0  0  0
   -0.8034   11.5628   -7.1902 C   0  0  0  0  0  0  0  0  0  0  0  0
    0.4389   14.5894   -5.9640 C   0  0  0  0  0  0  0  0  0  0  0  0
    1.5042   14.2139   -4.8744 C   0  0  0  0  0  0  0  0  0  0  0  0
    2.6302   13.6295   -5.4977 O   0  0  0  0  0  0  0  0  0  0  0  0
    0.9501   13.1612   -3.9053 C   0  0  0  0  0  0  0  0  0  0  0  0
    2.0179   15.4484   -4.1037 C   0  0  0  0  0  0  0  0  0  0  0  0
   -6.0641   12.2854   -9.8782 H   0  0  0  0  0  0  0  0  0  0  0  0
   -8.1913   10.1279  -13.8857 H   0  0  0  0  0  0  0  0  0  0  0  0
   -6.8965   12.2561  -14.0981 H   0  0  0  0  0  0  0  0  0  0  0  0
   -8.8966    8.2121  -11.8824 H   0  0  0  0  0  0  0  0  0  0  0  0
   -8.0357    9.5970   -7.2556 H   0  0  0  0  0  0  0  0  0  0  0  0
   -4.1971   12.8720  -10.8613 H   0  0  0  0  0  0  0  0  0  0  0  0
   -2.6221   14.5745  -10.8136 H   0  0  0  0  0  0  0  0  0  0  0  0
   -3.0817   14.9010  -12.5191 H   0  0  0  0  0  0  0  0  0  0  0  0
   -3.9787   15.6934  -11.1797 H   0  0  0  0  0  0  0  0  0  0  0  0
   -6.7407   12.3094   -6.9043 H   0  0  0  0  0  0  0  0  0  0  0  0
   -4.5143   13.2904   -6.4764 H   0  0  0  0  0  0  0  0  0  0  0  0
   -2.6607    9.7496   -8.0512 H   0  0  0  0  0  0  0  0  0  0  0  0
   -4.8939    8.7820   -8.4907 H   0  0  0  0  0  0  0  0  0  0  0  0
   -2.1296   14.1989   -7.1545 H   0  0  0  0  0  0  0  0  0  0  0  0
   -2.1709   13.5478   -5.4809 H   0  0  0  0  0  0  0  0  0  0  0  0
   -0.6606   10.5688   -7.5878 H   0  0  0  0  0  0  0  0  0  0  0  0
    0.9713   15.0036   -6.8329 H   0  0  0  0  0  0  0  0  0  0  0  0
   -0.2256   15.3572   -5.5409 H   0  0  0  0  0  0  0  0  0  0  0  0
    3.2752   13.4021   -4.8384 H   0  0  0  0  0  0  0  0  0  0  0  0
    1.7145   12.9160   -3.1533 H   0  0  0  0  0  0  0  0  0  0  0  0
    0.0563   13.5598   -3.4030 H   0  0  0  0  0  0  0  0  0  0  0  0
    0.6818   12.2530   -4.4649 H   0  0  0  0  0  0  0  0  0  0  0  0
    2.7591   15.1317   -3.3552 H   0  0  0  0  0  0  0  0  0  0  0  0
    2.4859   16.1517   -4.8082 H   0  0  0  0  0  0  0  0  0  0  0  0
    1.1747   15.9421   -3.5985 H   0  0  0  0  0  0  0  0  0  0  0  0
  1  2  2  0  0  0  0
  1  4  1  0  0  0  0
  1 13  1  0  0  0  0
  2  6  1  0  0  0  0
  3  4  2  0  0  0  0
  3  5  1  0  0  0  0
  5  6  2  0  0  0  0
  5  9  1  0  0  0  0
  6  7  1  0  0  0  0
  7  8  2  0  0  0  0
  7 10  1  0  0  0  0
  8  9  1  0  0  0  0
 10 15  2  0  0  0  0
 11 12  1  0  0  0  0
 11 13  1  0  0  0  0
 13 14  2  0  0  0  0
 15 16  1  0  0  0  0
 15 20  1  0  0  0  0
 16 17  2  0  0  0  0
 17 18  1  0  0  0  0
 18 19  1  0  0  0  0
 18 21  2  0  0  0  0
 19 20  2  0  0  0  0
 21 22  1  0  0  0  0
 21 25  1  0  0  0  0
 22 23  1  0  0  0  0
 23 24  1  0  0  0  0
 23 26  1  0  0  0  0
 24 25  2  0  0  0  0
 26 27  1  0  0  0  0
 27 28  1  0  0  0  0
 27 29  1  0  0  0  0
 27 30  1  0  0  0  0
  2 31  1  0  0  0  0
  3 32  1  0  0  0  0
  4 33  1  0  0  0  0
  9 34  1  0  0  0  0
 10 35  1  0  0  0  0
 11 36  1  0  0  0  0
 12 37  1  0  0  0  0
 12 38  1  0  0  0  0
 12 39  1  0  0  0  0
 16 40  1  0  0  0  0
 17 41  1  0  0  0  0
 19 42  1  0  0  0  0
 20 43  1  0  0  0  0
 22 44  1  0  0  0  0
 22 45  1  0  0  0  0
 25 46  1  0  0  0  0
 26 47  1  0  0  0  0
 26 48  1  0  0  0  0
 28 49  1  0  0  0  0
 29 50  1  0  0  0  0
 29 51  1  0  0  0  0
 29 52  1  0  0  0  0
 30 53  1  0  0  0  0
 30 54  1  0  0  0  0
 30 55  1  0  0  0  0
M  END
> <Name>
20

> <IC50[uM]>
0.016

$$$$
20
  -OEChem-05192314333D
 Structure written by MMmdl.
 55 58  0     1  0  0  0  0  0999 V2000
   -6.3740   12.3524  -12.0161 C   0  0  0  0  0  0  0  0  0  0  0  0
   -6.5100   11.8065  -10.7374 C   0  0  0  0  0  0  0  0  0  0  0  0
   -7.7222   10.5841  -13.0265 C   0  0  0  0  0  0  0  0  0  0  0  0
   -6.9887   11.7756  -13.1353 C   0  0  0  0  0  0  0  0  0  0  0  0
   -7.8163   10.0177  -11.7563 C   0  0  0  0  0  0  0  0  0  0  0  0
   -7.2425   10.6185  -10.6022 C   0  0  0  0  0  0  0  0  0  0  0  0
   -7.6172    9.7487   -9.5090 C   0  0  0  0  0  0  0  0  0  0  0  0
   -8.2846    8.7289   -9.9848 N   0  0  0  0  0  0  0  0  0  0  0  0
   -8.4176    8.8659  -11.2967 N   0  0  0  0  0  0  0  0  0  0  0  0
   -7.3368    9.8884   -8.0257 C   0  0  0  0  0  0  0  0  0  0  0  0
   -4.4023   13.6480  -11.4578 N   0  0  0  0  0  0  0  0  0  0  0  0
   -3.4623   14.7747  -11.4948 C   0  0  0  0  0  0  0  0  0  0  0  0
   -5.5331   13.6158  -12.1961 C   0  0  0  0  0  0  0  0  0  0  0  0
   -5.8776   14.5022  -12.9731 O   0  0  0  0  0  0  0  0  0  0  0  0
   -5.9585   10.4860   -7.7354 C   0  0  0  0  0  0  0  0  0  0  0  0
   -5.8494   11.7555   -7.1596 C   0  0  0  0  0  0  0  0  0  0  0  0
   -4.5968   12.3068   -6.9148 C   0  0  0  0  0  0  0  0  0  0  0  0
   -3.4468   11.5860   -7.2370 C   0  0  0  0  0  0  0  0  0  0  0  0
   -3.5513   10.3089   -7.8057 C   0  0  0  0  0  0  0  0  0  0  0  0
   -4.8090    9.7654   -8.0523 C   0  0  0  0  0  0  0  0  0  0  0  0
   -2.0901   12.1669   -6.9801 C   0  0  0  0  0  0  0  0  0  0  0  0
   -1.7479   13.4121   -6.4872 C   0  0  0  0  0  0  0  0  0  0  0  0
   -0.3990   13.4663   -6.4328 N   0  0  3  0  0  0  0  0  0  0  0  0
    0.1869   12.3691   -6.8386 N   0  0  0  0  0  0  0  0  0  0  0  0
   -0.8034   11.5628   -7.1902 C   0  0  0  0  0  0  0  0  0  0  0  0
    0.4389   14.5894   -5.9640 C   0  0  0  0  0  0  0  0  0  0  0  0
    1.5042   14.2139   -4.8744 C   0  0  0  0  0  0  0  0  0  0  0  0
    2.6302   13.6295   -5.4977 O   0  0  0  0  0  0  0  0  0  0  0  0
    0.9501   13.1612   -3.9053 C   0  0  0  0  0  0  0  0  0  0  0  0
    2.0179   15.4484   -4.1037 C   0  0  0  0  0  0  0  0  0  0  0  0
   -6.0641   12.2854   -9.8782 H   0  0  0  0  0  0  0  0  0  0  0  0
   -8.1913   10.1279  -13.8857 H   0  0  0  0  0  0  0  0  0  0  0  0
   -6.8965   12.2561  -14.0981 H   0  0  0  0  0  0  0  0  0  0  0  0
   -8.6387    7.9660   -9.4439 H   0  0  0  0  0  0  0  0  0  0  0  0
   -8.0357    9.5970   -7.2556 H   0  0  0  0  0  0  0  0  0  0  0  0
   -2.6221   14.5745  -10.8136 H   0  0  0  0  0  0  0  0  0  0  0  0
   -3.0817   14.9010  -12.5191 H   0  0  0  0  0  0  0  0  0  0  0  0
   -3.9787   15.6934  -11.1797 H   0  0  0  0  0  0  0  0  0  0  0  0
   -5.2393   15.2056  -12.9549 H   0  0  0  0  0  0  0  0  0  0  0  0
   -6.7407   12.3094   -6.9043 H   0  0  0  0  0  0  0  0  0  0  0  0
   -4.5143   13.2904   -6.4764 H   0  0  0  0  0  0  0  0  0  0  0  0
   -2.6607    9.7496   -8.0512 H   0  0  0  0  0  0  0  0  0  0  0  0
   -4.8939    8.7820   -8.4907 H   0  0  0  0  0  0  0  0  0  0  0  0
   -2.1296   14.1989   -7.1545 H   0  0  0  0  0  0  0  0  0  0  0  0
   -2.1709   13.5478   -5.4809 H   0  0  0  0  0  0  0  0  0  0  0  0
   -0.6606   10.5688   -7.5878 H   0  0  0  0  0  0  0  0  0  0  0  0
    0.9713   15.0036   -6.8329 H   0  0  0  0  0  0  0  0  0  0  0  0
   -0.2256   15.3572   -5.5409 H   0  0  0  0  0  0  0  0  0  0  0  0
    3.2752   13.4021   -4.8384 H   0  0  0  0  0  0  0  0  0  0  0  0
    1.7145   12.9160   -3.1533 H   0  0  0  0  0  0  0  0  0  0  0  0
    0.0563   13.5598   -3.4030 H   0  0  0  0  0  0  0  0  0  0  0  0
    0.6818   12.2530   -4.4649 H   0  0  0  0  0  0  0  0  0  0  0  0
    2.7591   15.1317   -3.3552 H   0  0  0  0  0  0  0  0  0  0  0  0
    2.4859   16.1517   -4.8082 H   0  0  0  0  0  0  0  0  0  0  0  0
    1.1747   15.9421   -3.5985 H   0  0  0  0  0  0  0  0  0  0  0  0
  1  2  2  0  0  0  0
  1  4  1  0  0  0  0
  1 13  1  0  0  0  0
  2  6  1  0  0  0  0
  3  4  2  0  0  0  0
  3  5  1  0  0  0  0
  5  6  1  0  0  0  0
  5  9  2  0  0  0  0
  6  7  2  0  0  0  0
  7  8  1  0  0  0  0
  7 10  1  0  0  0  0
  8  9  1  0  0  0  0
 10 15  2  0  0  0  0
 11 12  1  0  0  0  0
 11 13  2  0  0  0  0
 13 14  1  0  0  0  0
 15 16  1  0  0  0  0
 15 20  1  0  0  0  0
 16 17  2  0  0  0  0
 17 18  1  0  0  0  0
 18 19  1  0  0  0  0
 18 21  2  0  0  0  0
 19 20  2  0  0  0  0
 21 22  1  0  0  0  0
 21 25  1  0  0  0  0
 22 23  1  0  0  0  0
 23 24  1  0  0  0  0
 23 26  1  0  0  0  0
 24 25  2  0  0  0  0
 26 27  1  0  0  0  0
 27 28  1  0  0  0  0
 27 29  1  0  0  0  0
 27 30  1  0  0  0  0
  2 31  1  0  0  0  0
  3 32  1  0  0  0  0
  4 33  1  0  0  0  0
  8 34  1  0  0  0  0
 10 35  1  0  0  0  0
 12 36  1  0  0  0  0
 12 37  1  0  0  0  0
 12 38  1  0  0  0  0
 14 39  1  0  0  0  0
 16 40  1  0  0  0  0
 17 41  1  0  0  0  0
 19 42  1  0  0  0  0
 20 43  1  0  0  0  0
 22 44  1  0  0  0  0
 22 45  1  0  0  0  0
 25 46  1  0  0  0  0
 26 47  1  0  0  0  0
 26 48  1  0  0  0  0
 28 49  1  0  0  0  0
 29 50  1  0  0  0  0
 29 51  1  0  0  0  0
 29 52  1  0  0  0  0
 30 53  1  0  0  0  0
 30 54  1  0  0  0  0
 30 55  1  0  0  0  0
M  END
> <Name>
20

> <IC50[uM]>
0.016

$$$$
20
  -OEChem-05192314333D
 Structure written by MMmdl.
 55 58  0     1  0  0  0  0  0999 V2000
   -6.3740   12.3524  -12.0161 C   0  0  0  0  0  0  0  0  0  0  0  0
   -6.5100   11.8065  -10.7374 C   0  0  0  0  0  0  0  0  0  0  0  0
   -7.7222   10.5841  -13.0265 C   0  0  0  0  0  0  0  0  0  0  0  0
   -6.9887   11.7756  -13.1353 C   0  0  0  0  0  0  0  0  0  0  0  0
   -7.8163   10.0177  -11.7563 C   0  0  0  0  0  0  0  0  0  0  0  0
   -7.2425   10.6185  -10.6022 C   0  0  0  0  0  0  0  0  0  0  0  0
   -7.6172    9.7487   -9.5090 C   0  0  0  0  0  0  0  0  0  0  0  0
   -8.2846    8.7289   -9.9848 N   0  0  0  0  0  0  0  0  0  0  0  0
   -8.4176    8.8659  -11.2967 N   0  0  0  0  0  0  0  0  0  0  0  0
   -7.3368    9.8884   -8.0257 C   0  0  0  0  0  0  0  0  0  0  0  0
   -4.4023   13.6480  -11.4578 N   0  0  0  0  0  0  0  0  0  0  0  0
   -3.4623   14.7747  -11.4948 C   0  0  0  0  0  0  0  0  0  0  0  0
   -5.5331   13.6158  -12.1961 C   0  0  0  0  0  0  0  0  0  0  0  0
   -5.8776   14.5022  -12.9731 O   0  0  0  0  0  0  0  0  0  0  0  0
   -5.9585   10.4860   -7.7354 C   0  0  0  0  0  0  0  0  0  0  0  0
   -5.8494   11.7555   -7.1596 C   0  0  0  0  0  0  0  0  0  0  0  0
   -4.5968   12.3068   -6.9148 C   0  0  0  0  0  0  0  0  0  0  0  0
   -3.4468   11.5860   -7.2370 C   0  0  0  0  0  0  0  0  0  0  0  0
   -3.5513   10.3089   -7.8057 C   0  0  0  0  0  0  0  0  0  0  0  0
   -4.8090    9.7654   -8.0523 C   0  0  0  0  0  0  0  0  0  0  0  0
   -2.0901   12.1669   -6.9801 C   0  0  0  0  0  0  0  0  0  0  0  0
   -1.7479   13.4121   -6.4872 C   0  0  0  0  0  0  0  0  0  0  0  0
   -0.3990   13.4663   -6.4328 N   0  0  3  0  0  0  0  0  0  0  0  0
    0.1869   12.3691   -6.8386 N   0  0  0  0  0  0  0  0  0  0  0  0
   -0.8034   11.5628   -7.1902 C   0  0  0  0  0  0  0  0  0  0  0  0
    0.4389   14.5894   -5.9640 C   0  0  0  0  0  0  0  0  0  0  0  0
    1.5042   14.2139   -4.8744 C   0  0  0  0  0  0  0  0  0  0  0  0
    2.6302   13.6295   -5.4977 O   0  0  0  0  0  0  0  0  0  0  0  0
    0.9501   13.1612   -3.9053 C   0  0  0  0  0  0  0  0  0  0  0  0
    2.0179   15.4484   -4.1037 C   0  0  0  0  0  0  0  0  0  0  0  0
   -6.0641   12.2854   -9.8782 H   0  0  0  0  0  0  0  0  0  0  0  0
   -8.1913   10.1279  -13.8857 H   0  0  0  0  0  0  0  0  0  0  0  0
   -6.8965   12.2561  -14.0981 H   0  0  0  0  0  0  0  0  0  0  0  0
   -8.8966    8.2121  -11.8824 H   0  0  0  0  0  0  0  0  0  0  0  0
   -8.0357    9.5970   -7.2556 H   0  0  0  0  0  0  0  0  0  0  0  0
   -2.6221   14.5745  -10.8136 H   0  0  0  0  0  0  0  0  0  0  0  0
   -3.0817   14.9010  -12.5191 H   0  0  0  0  0  0  0  0  0  0  0  0
   -3.9787   15.6934  -11.1797 H   0  0  0  0  0  0  0  0  0  0  0  0
   -5.2393   15.2056  -12.9549 H   0  0  0  0  0  0  0  0  0  0  0  0
   -6.7407   12.3094   -6.9043 H   0  0  0  0  0  0  0  0  0  0  0  0
   -4.5143   13.2904   -6.4764 H   0  0  0  0  0  0  0  0  0  0  0  0
   -2.6607    9.7496   -8.0512 H   0  0  0  0  0  0  0  0  0  0  0  0
   -4.8939    8.7820   -8.4907 H   0  0  0  0  0  0  0  0  0  0  0  0
   -2.1296   14.1989   -7.1545 H   0  0  0  0  0  0  0  0  0  0  0  0
   -2.1709   13.5478   -5.4809 H   0  0  0  0  0  0  0  0  0  0  0  0
   -0.6606   10.5688   -7.5878 H   0  0  0  0  0  0  0  0  0  0  0  0
    0.9713   15.0036   -6.8329 H   0  0  0  0  0  0  0  0  0  0  0  0
   -0.2256   15.3572   -5.5409 H   0  0  0  0  0  0  0  0  0  0  0  0
    3.2752   13.4021   -4.8384 H   0  0  0  0  0  0  0  0  0  0  0  0
    1.7145   12.9160   -3.1533 H   0  0  0  0  0  0  0  0  0  0  0  0
    0.0563   13.5598   -3.4030 H   0  0  0  0  0  0  0  0  0  0  0  0
    0.6818   12.2530   -4.4649 H   0  0  0  0  0  0  0  0  0  0  0  0
    2.7591   15.1317   -3.3552 H   0  0  0  0  0  0  0  0  0  0  0  0
    2.4859   16.1517   -4.8082 H   0  0  0  0  0  0  0  0  0  0  0  0
    1.1747   15.9421   -3.5985 H   0  0  0  0  0  0  0  0  0  0  0  0
  1  2  2  0  0  0  0
  1  4  1  0  0  0  0
  1 13  1  0  0  0  0
  2  6  1  0  0  0  0
  3  4  2  0  0  0  0
  3  5  1  0  0  0  0
  5  6  2  0  0  0  0
  5  9  1  0  0  0  0
  6  7  1  0  0  0  0
  7  8  2  0  0  0  0
  7 10  1  0  0  0  0
  8  9  1  0  0  0  0
 10 15  2  0  0  0  0
 11 12  1  0  0  0  0
 11 13  2  0  0  0  0
 13 14  1  0  0  0  0
 15 16  1  0  0  0  0
 15 20  1  0  0  0  0
 16 17  2  0  0  0  0
 17 18  1  0  0  0  0
 18 19  1  0  0  0  0
 18 21  2  0  0  0  0
 19 20  2  0  0  0  0
 21 22  1  0  0  0  0
 21 25  1  0  0  0  0
 22 23  1  0  0  0  0
 23 24  1  0  0  0  0
 23 26  1  0  0  0  0
 24 25  2  0  0  0  0
 26 27  1  0  0  0  0
 27 28  1  0  0  0  0
 27 29  1  0  0  0  0
 27 30  1  0  0  0  0
  2 31  1  0  0  0  0
  3 32  1  0  0  0  0
  4 33  1  0  0  0  0
  9 34  1  0  0  0  0
 10 35  1  0  0  0  0
 12 36  1  0  0  0  0
 12 37  1  0  0  0  0
 12 38  1  0  0  0  0
 14 39  1  0  0  0  0
 16 40  1  0  0  0  0
 17 41  1  0  0  0  0
 19 42  1  0  0  0  0
 20 43  1  0  0  0  0
 22 44  1  0  0  0  0
 22 45  1  0  0  0  0
 25 46  1  0  0  0  0
 26 47  1  0  0  0  0
 26 48  1  0  0  0  0
 28 49  1  0  0  0  0
 29 50  1  0  0  0  0
 29 51  1  0  0  0  0
 29 52  1  0  0  0  0
 30 53  1  0  0  0  0
 30 54  1  0  0  0  0
 30 55  1  0  0  0  0
M  END
> <Name>
20

> <IC50[uM]>
0.016

$$$$
20
  -OEChem-05192314333D
 Structure written by MMmdl.
 55 58  0     0  0  0  0  0  0999 V2000
   -6.3740   12.3524  -12.0161 C   0  0  0  0  0  0  0  0  0  0  0  0
   -6.5100   11.8065  -10.7374 C   0  0  0  0  0  0  0  0  0  0  0  0
   -7.7222   10.5841  -13.0265 C   0  0  0  0  0  0  0  0  0  0  0  0
   -6.9887   11.7756  -13.1353 C   0  0  0  0  0  0  0  0  0  0  0  0
   -7.8163   10.0177  -11.7563 C   0  0  0  0  0  0  0  0  0  0  0  0
   -7.2425   10.6185  -10.6022 C   0  0  0  0  0  0  0  0  0  0  0  0
   -7.6172    9.7487   -9.5090 C   0  0  0  0  0  0  0  0  0  0  0  0
   -8.2846    8.7289   -9.9848 N   0  0  0  0  0  0  0  0  0  0  0  0
   -8.4176    8.8659  -11.2967 N   0  0  0  0  0  0  0  0  0  0  0  0
   -7.3368    9.8884   -8.0257 C   0  0  0  0  0  0  0  0  0  0  0  0
   -4.4023   13.6480  -11.4578 N   0  0  0  0  0  0  0  0  0  0  0  0
   -3.4623   14.7747  -11.4948 C   0  0  0  0  0  0  0  0  0  0  0  0
   -5.5331   13.6158  -12.1961 C   0  0  0  0  0  0  0  0  0  0  0  0
   -5.8776   14.5022  -12.9731 O   0  0  0  0  0  0  0  0  0  0  0  0
   -5.9585   10.4860   -7.7354 C   0  0  0  0  0  0  0  0  0  0  0  0
   -5.8494   11.7555   -7.1596 C   0  0  0  0  0  0  0  0  0  0  0  0
   -4.5968   12.3068   -6.9148 C   0  0  0  0  0  0  0  0  0  0  0  0
   -3.4468   11.5860   -7.2370 C   0  0  0  0  0  0  0  0  0  0  0  0
   -3.5513   10.3089   -7.8057 C   0  0  0  0  0  0  0  0  0  0  0  0
   -4.8090    9.7654   -8.0523 C   0  0  0  0  0  0  0  0  0  0  0  0
   -2.0901   12.1669   -6.9801 C   0  0  0  0  0  0  0  0  0  0  0  0
   -1.7479   13.4121   -6.4872 C   0  0  0  0  0  0  0  0  0  0  0  0
   -0.3990   13.4663   -6.4328 N   0  0  0  0  0  0  0  0  0  0  0  0
    0.1869   12.3691   -6.8386 N   0  0  0  0  0  0  0  0  0  0  0  0
   -0.8034   11.5628   -7.1902 C   0  0  0  0  0  0  0  0  0  0  0  0
    0.4389   14.5894   -5.9640 C   0  0  0  0  0  0  0  0  0  0  0  0
    1.5042   14.2139   -4.8744 C   0  0  0  0  0  0  0  0  0  0  0  0
    2.6302   13.6295   -5.4977 O   0  0  0  0  0  0  0  0  0  0  0  0
    0.9501   13.1612   -3.9053 C   0  0  0  0  0  0  0  0  0  0  0  0
    2.0179   15.4484   -4.1037 C   0  0  0  0  0  0  0  0  0  0  0  0
   -6.0641   12.2854   -9.8782 H   0  0  0  0  0  0  0  0  0  0  0  0
   -8.1913   10.1279  -13.8857 H   0  0  0  0  0  0  0  0  0  0  0  0
   -6.8965   12.2561  -14.0981 H   0  0  0  0  0  0  0  0  0  0  0  0
   -8.6387    7.9660   -9.4439 H   0  0  0  0  0  0  0  0  0  0  0  0
   -8.0357    9.5970   -7.2556 H   0  0  0  0  0  0  0  0  0  0  0  0
   -4.1971   12.8720  -10.8613 H   0  0  0  0  0  0  0  0  0  0  0  0
   -2.6221   14.5745  -10.8136 H   0  0  0  0  0  0  0  0  0  0  0  0
   -3.0817   14.9010  -12.5191 H   0  0  0  0  0  0  0  0  0  0  0  0
   -3.9787   15.6934  -11.1797 H   0  0  0  0  0  0  0  0  0  0  0  0
   -6.7407   12.3094   -6.9043 H   0  0  0  0  0  0  0  0  0  0  0  0
   -4.5143   13.2904   -6.4764 H   0  0  0  0  0  0  0  0  0  0  0  0
   -3.4456   11.1385   -6.2321 H   0  0  0  0  0  0  0  0  0  0  0  0
   -2.6607    9.7496   -8.0512 H   0  0  0  0  0  0  0  0  0  0  0  0
   -4.8939    8.7820   -8.4907 H   0  0  0  0  0  0  0  0  0  0  0  0
   -2.4321   14.1965   -6.1989 H   0  0  0  0  0  0  0  0  0  0  0  0
   -0.6606   10.5688   -7.5878 H   0  0  0  0  0  0  0  0  0  0  0  0
    0.9713   15.0036   -6.8329 H   0  0  0  0  0  0  0  0  0  0  0  0
   -0.2256   15.3572   -5.5409 H   0  0  0  0  0  0  0  0  0  0  0  0
    3.2752   13.4021   -4.8384 H   0  0  0  0  0  0  0  0  0  0  0  0
    1.7145   12.9160   -3.1533 H   0  0  0  0  0  0  0  0  0  0  0  0
    0.0563   13.5598   -3.4030 H   0  0  0  0  0  0  0  0  0  0  0  0
    0.6818   12.2530   -4.4649 H   0  0  0  0  0  0  0  0  0  0  0  0
    2.7591   15.1317   -3.3552 H   0  0  0  0  0  0  0  0  0  0  0  0
    2.4859   16.1517   -4.8082 H   0  0  0  0  0  0  0  0  0  0  0  0
    1.1747   15.9421   -3.5985 H   0  0  0  0  0  0  0  0  0  0  0  0
  1  2  2  0  0  0  0
  1  4  1  0  0  0  0
  1 13  1  0  0  0  0
  2  6  1  0  0  0  0
  3  4  2  0  0  0  0
  3  5  1  0  0  0  0
  5  6  1  0  0  0  0
  5  9  2  0  0  0  0
  6  7  2  0  0  0  0
  7  8  1  0  0  0  0
  7 10  1  0  0  0  0
  8  9  1  0  0  0  0
 10 15  2  0  0  0  0
 11 12  1  0  0  0  0
 11 13  1  0  0  0  0
 13 14  2  0  0  0  0
 15 16  1  0  0  0  0
 15 20  1  0  0  0  0
 16 17  2  0  0  0  0
 17 18  1  0  0  0  0
 18 19  1  0  0  0  0
 18 21  1  0  0  0  0
 19 20  2  0  0  0  0
 21 22  2  0  0  0  0
 21 25  1  0  0  0  0
 22 23  1  0  0  0  0
 23 24  1  0  0  0  0
 23 26  1  0  0  0  0
 24 25  2  0  0  0  0
 26 27  1  0  0  0  0
 27 28  1  0  0  0  0
 27 29  1  0  0  0  0
 27 30  1  0  0  0  0
  2 31  1  0  0  0  0
  3 32  1  0  0  0  0
  4 33  1  0  0  0  0
  8 34  1  0  0  0  0
 10 35  1  0  0  0  0
 11 36  1  0  0  0  0
 12 37  1  0  0  0  0
 12 38  1  0  0  0  0
 12 39  1  0  0  0  0
 16 40  1  0  0  0  0
 17 41  1  0  0  0  0
 18 42  1  0  0  0  0
 19 43  1  0  0  0  0
 20 44  1  0  0  0  0
 22 45  1  0  0  0  0
 25 46  1  0  0  0  0
 26 47  1  0  0  0  0
 26 48  1  0  0  0  0
 28 49  1  0  0  0  0
 29 50  1  0  0  0  0
 29 51  1  0  0  0  0
 29 52  1  0  0  0  0
 30 53  1  0  0  0  0
 30 54  1  0  0  0  0
 30 55  1  0  0  0  0
M  END
> <Name>
20

> <IC50[uM]>
0.016

$$$$
20
  -OEChem-05192314333D
 Structure written by MMmdl.
 55 58  0     0  0  0  0  0  0999 V2000
   -6.3740   12.3524  -12.0161 C   0  0  0  0  0  0  0  0  0  0  0  0
   -6.5100   11.8065  -10.7374 C   0  0  0  0  0  0  0  0  0  0  0  0
   -7.7222   10.5841  -13.0265 C   0  0  0  0  0  0  0  0  0  0  0  0
   -6.9887   11.7756  -13.1353 C   0  0  0  0  0  0  0  0  0  0  0  0
   -7.8163   10.0177  -11.7563 C   0  0  0  0  0  0  0  0  0  0  0  0
   -7.2425   10.6185  -10.6022 C   0  0  0  0  0  0  0  0  0  0  0  0
   -7.6172    9.7487   -9.5090 C   0  0  0  0  0  0  0  0  0  0  0  0
   -8.2846    8.7289   -9.9848 N   0  0  0  0  0  0  0  0  0  0  0  0
   -8.4176    8.8659  -11.2967 N   0  0  0  0  0  0  0  0  0  0  0  0
   -7.3368    9.8884   -8.0257 C   0  0  0  0  0  0  0  0  0  0  0  0
   -4.4023   13.6480  -11.4578 N   0  0  0  0  0  0  0  0  0  0  0  0
   -3.4623   14.7747  -11.4948 C   0  0  0  0  0  0  0  0  0  0  0  0
   -5.5331   13.6158  -12.1961 C   0  0  0  0  0  0  0  0  0  0  0  0
   -5.8776   14.5022  -12.9731 O   0  0  0  0  0  0  0  0  0  0  0  0
   -5.9585   10.4860   -7.7354 C   0  0  0  0  0  0  0  0  0  0  0  0
   -5.8494   11.7555   -7.1596 C   0  0  0  0  0  0  0  0  0  0  0  0
   -4.5968   12.3068   -6.9148 C   0  0  0  0  0  0  0  0  0  0  0  0
   -3.4468   11.5860   -7.2370 C   0  0  0  0  0  0  0  0  0  0  0  0
   -3.5513   10.3089   -7.8057 C   0  0  0  0  0  0  0  0  0  0  0  0
   -4.8090    9.7654   -8.0523 C   0  0  0  0  0  0  0  0  0  0  0  0
   -2.0901   12.1669   -6.9801 C   0  0  0  0  0  0  0  0  0  0  0  0
   -1.7479   13.4121   -6.4872 C   0  0  0  0  0  0  0  0  0  0  0  0
   -0.3990   13.4663   -6.4328 N   0  0  0  0  0  0  0  0  0  0  0  0
    0.1869   12.3691   -6.8386 N   0  0  0  0  0  0  0  0  0  0  0  0
   -0.8034   11.5628   -7.1902 C   0  0  0  0  0  0  0  0  0  0  0  0
    0.4389   14.5894   -5.9640 C   0  0  0  0  0  0  0  0  0  0  0  0
    1.5042   14.2139   -4.8744 C   0  0  0  0  0  0  0  0  0  0  0  0
    2.6302   13.6295   -5.4977 O   0  0  0  0  0  0  0  0  0  0  0  0
    0.9501   13.1612   -3.9053 C   0  0  0  0  0  0  0  0  0  0  0  0
    2.0179   15.4484   -4.1037 C   0  0  0  0  0  0  0  0  0  0  0  0
   -6.0641   12.2854   -9.8782 H   0  0  0  0  0  0  0  0  0  0  0  0
   -8.1913   10.1279  -13.8857 H   0  0  0  0  0  0  0  0  0  0  0  0
   -6.8965   12.2561  -14.0981 H   0  0  0  0  0  0  0  0  0  0  0  0
   -8.8966    8.2121  -11.8824 H   0  0  0  0  0  0  0  0  0  0  0  0
   -8.0357    9.5970   -7.2556 H   0  0  0  0  0  0  0  0  0  0  0  0
   -4.1971   12.8720  -10.8613 H   0  0  0  0  0  0  0  0  0  0  0  0
   -2.6221   14.5745  -10.8136 H   0  0  0  0  0  0  0  0  0  0  0  0
   -3.0817   14.9010  -12.5191 H   0  0  0  0  0  0  0  0  0  0  0  0
   -3.9787   15.6934  -11.1797 H   0  0  0  0  0  0  0  0  0  0  0  0
   -6.7407   12.3094   -6.9043 H   0  0  0  0  0  0  0  0  0  0  0  0
   -4.5143   13.2904   -6.4764 H   0  0  0  0  0  0  0  0  0  0  0  0
   -3.4456   11.1385   -6.2321 H   0  0  0  0  0  0  0  0  0  0  0  0
   -2.6607    9.7496   -8.0512 H   0  0  0  0  0  0  0  0  0  0  0  0
   -4.8939    8.7820   -8.4907 H   0  0  0  0  0  0  0  0  0  0  0  0
   -2.4321   14.1965   -6.1989 H   0  0  0  0  0  0  0  0  0  0  0  0
   -0.6606   10.5688   -7.5878 H   0  0  0  0  0  0  0  0  0  0  0  0
    0.9713   15.0036   -6.8329 H   0  0  0  0  0  0  0  0  0  0  0  0
   -0.2256   15.3572   -5.5409 H   0  0  0  0  0  0  0  0  0  0  0  0
    3.2752   13.4021   -4.8384 H   0  0  0  0  0  0  0  0  0  0  0  0
    1.7145   12.9160   -3.1533 H   0  0  0  0  0  0  0  0  0  0  0  0
    0.0563   13.5598   -3.4030 H   0  0  0  0  0  0  0  0  0  0  0  0
    0.6818   12.2530   -4.4649 H   0  0  0  0  0  0  0  0  0  0  0  0
    2.7591   15.1317   -3.3552 H   0  0  0  0  0  0  0  0  0  0  0  0
    2.4859   16.1517   -4.8082 H   0  0  0  0  0  0  0  0  0  0  0  0
    1.1747   15.9421   -3.5985 H   0  0  0  0  0  0  0  0  0  0  0  0
  1  2  2  0  0  0  0
  1  4  1  0  0  0  0
  1 13  1  0  0  0  0
  2  6  1  0  0  0  0
  3  4  2  0  0  0  0
  3  5  1  0  0  0  0
  5  6  2  0  0  0  0
  5  9  1  0  0  0  0
  6  7  1  0  0  0  0
  7  8  2  0  0  0  0
  7 10  1  0  0  0  0
  8  9  1  0  0  0  0
 10 15  2  0  0  0  0
 11 12  1  0  0  0  0
 11 13  1  0  0  0  0
 13 14  2  0  0  0  0
 15 16  1  0  0  0  0
 15 20  1  0  0  0  0
 16 17  2  0  0  0  0
 17 18  1  0  0  0  0
 18 19  1  0  0  0  0
 18 21  1  0  0  0  0
 19 20  2  0  0  0  0
 21 22  2  0  0  0  0
 21 25  1  0  0  0  0
 22 23  1  0  0  0  0
 23 24  1  0  0  0  0
 23 26  1  0  0  0  0
 24 25  2  0  0  0  0
 26 27  1  0  0  0  0
 27 28  1  0  0  0  0
 27 29  1  0  0  0  0
 27 30  1  0  0  0  0
  2 31  1  0  0  0  0
  3 32  1  0  0  0  0
  4 33  1  0  0  0  0
  9 34  1  0  0  0  0
 10 35  1  0  0  0  0
 11 36  1  0  0  0  0
 12 37  1  0  0  0  0
 12 38  1  0  0  0  0
 12 39  1  0  0  0  0
 16 40  1  0  0  0  0
 17 41  1  0  0  0  0
 18 42  1  0  0  0  0
 19 43  1  0  0  0  0
 20 44  1  0  0  0  0
 22 45  1  0  0  0  0
 25 46  1  0  0  0  0
 26 47  1  0  0  0  0
 26 48  1  0  0  0  0
 28 49  1  0  0  0  0
 29 50  1  0  0  0  0
 29 51  1  0  0  0  0
 29 52  1  0  0  0  0
 30 53  1  0  0  0  0
 30 54  1  0  0  0  0
 30 55  1  0  0  0  0
M  END
> <Name>
20

> <IC50[uM]>
0.016

$$$$
20
  -OEChem-05192314333D
 Structure written by MMmdl.
 55 58  0     0  0  0  0  0  0999 V2000
   -6.3740   12.3524  -12.0161 C   0  0  0  0  0  0  0  0  0  0  0  0
   -6.5100   11.8065  -10.7374 C   0  0  0  0  0  0  0  0  0  0  0  0
   -7.7222   10.5841  -13.0265 C   0  0  0  0  0  0  0  0  0  0  0  0
   -6.9887   11.7756  -13.1353 C   0  0  0  0  0  0  0  0  0  0  0  0
   -7.8163   10.0177  -11.7563 C   0  0  0  0  0  0  0  0  0  0  0  0
   -7.2425   10.6185  -10.6022 C   0  0  0  0  0  0  0  0  0  0  0  0
   -7.6172    9.7487   -9.5090 C   0  0  0  0  0  0  0  0  0  0  0  0
   -8.2846    8.7289   -9.9848 N   0  0  0  0  0  0  0  0  0  0  0  0
   -8.4176    8.8659  -11.2967 N   0  0  0  0  0  0  0  0  0  0  0  0
   -7.3368    9.8884   -8.0257 C   0  0  0  0  0  0  0  0  0  0  0  0
   -4.4023   13.6480  -11.4578 N   0  0  0  0  0  0  0  0  0  0  0  0
   -3.4623   14.7747  -11.4948 C   0  0  0  0  0  0  0  0  0  0  0  0
   -5.5331   13.6158  -12.1961 C   0  0  0  0  0  0  0  0  0  0  0  0
   -5.8776   14.5022  -12.9731 O   0  0  0  0  0  0  0  0  0  0  0  0
   -5.9585   10.4860   -7.7354 C   0  0  0  0  0  0  0  0  0  0  0  0
   -5.8494   11.7555   -7.1596 C   0  0  0  0  0  0  0  0  0  0  0  0
   -4.5968   12.3068   -6.9148 C   0  0  0  0  0  0  0  0  0  0  0  0
   -3.4468   11.5860   -7.2370 C   0  0  0  0  0  0  0  0  0  0  0  0
   -3.5513   10.3089   -7.8057 C   0  0  0  0  0  0  0  0  0  0  0  0
   -4.8090    9.7654   -8.0523 C   0  0  0  0  0  0  0  0  0  0  0  0
   -2.0901   12.1669   -6.9801 C   0  0  0  0  0  0  0  0  0  0  0  0
   -1.7479   13.4121   -6.4872 C   0  0  0  0  0  0  0  0  0  0  0  0
   -0.3990   13.4663   -6.4328 N   0  0  0  0  0  0  0  0  0  0  0  0
    0.1869   12.3691   -6.8386 N   0  0  0  0  0  0  0  0  0  0  0  0
   -0.8034   11.5628   -7.1902 C   0  0  0  0  0  0  0  0  0  0  0  0
    0.4389   14.5894   -5.9640 C   0  0  0  0  0  0  0  0  0  0  0  0
    1.5042   14.2139   -4.8744 C   0  0  0  0  0  0  0  0  0  0  0  0
    2.6302   13.6295   -5.4977 O   0  0  0  0  0  0  0  0  0  0  0  0
    0.9501   13.1612   -3.9053 C   0  0  0  0  0  0  0  0  0  0  0  0
    2.0179   15.4484   -4.1037 C   0  0  0  0  0  0  0  0  0  0  0  0
   -6.0641   12.2854   -9.8782 H   0  0  0  0  0  0  0  0  0  0  0  0
   -8.1913   10.1279  -13.8857 H   0  0  0  0  0  0  0  0  0  0  0  0
   -6.8965   12.2561  -14.0981 H   0  0  0  0  0  0  0  0  0  0  0  0
   -8.6387    7.9660   -9.4439 H   0  0  0  0  0  0  0  0  0  0  0  0
   -8.0357    9.5970   -7.2556 H   0  0  0  0  0  0  0  0  0  0  0  0
   -4.1971   12.8720  -10.8613 H   0  0  0  0  0  0  0  0  0  0  0  0
   -2.6221   14.5745  -10.8136 H   0  0  0  0  0  0  0  0  0  0  0  0
   -3.0817   14.9010  -12.5191 H   0  0  0  0  0  0  0  0  0  0  0  0
   -3.9787   15.6934  -11.1797 H   0  0  0  0  0  0  0  0  0  0  0  0
   -6.7407   12.3094   -6.9043 H   0  0  0  0  0  0  0  0  0  0  0  0
   -4.5143   13.2904   -6.4764 H   0  0  0  0  0  0  0  0  0  0  0  0
   -2.6607    9.7496   -8.0512 H   0  0  0  0  0  0  0  0  0  0  0  0
   -4.8619    8.8217   -7.4897 H   0  0  0  0  0  0  0  0  0  0  0  0
   -4.8560    9.5526   -9.1305 H   0  0  0  0  0  0  0  0  0  0  0  0
   -2.4321   14.1965   -6.1989 H   0  0  0  0  0  0  0  0  0  0  0  0
   -0.6606   10.5688   -7.5878 H   0  0  0  0  0  0  0  0  0  0  0  0
    0.9713   15.0036   -6.8329 H   0  0  0  0  0  0  0  0  0  0  0  0
   -0.2256   15.3572   -5.5409 H   0  0  0  0  0  0  0  0  0  0  0  0
    3.2752   13.4021   -4.8384 H   0  0  0  0  0  0  0  0  0  0  0  0
    1.7145   12.9160   -3.1533 H   0  0  0  0  0  0  0  0  0  0  0  0
    0.0563   13.5598   -3.4030 H   0  0  0  0  0  0  0  0  0  0  0  0
    0.6818   12.2530   -4.4649 H   0  0  0  0  0  0  0  0  0  0  0  0
    2.7591   15.1317   -3.3552 H   0  0  0  0  0  0  0  0  0  0  0  0
    2.4859   16.1517   -4.8082 H   0  0  0  0  0  0  0  0  0  0  0  0
    1.1747   15.9421   -3.5985 H   0  0  0  0  0  0  0  0  0  0  0  0
  1  2  2  0  0  0  0
  1  4  1  0  0  0  0
  1 13  1  0  0  0  0
  2  6  1  0  0  0  0
  3  4  2  0  0  0  0
  3  5  1  0  0  0  0
  5  6  1  0  0  0  0
  5  9  2  0  0  0  0
  6  7  2  0  0  0  0
  7  8  1  0  0  0  0
  7 10  1  0  0  0  0
  8  9  1  0  0  0  0
 10 15  2  3  0  0  0
 11 12  1  0  0  0  0
 11 13  1  0  0  0  0
 13 14  2  0  0  0  0
 15 16  1  0  0  0  0
 15 20  1  0  0  0  0
 16 17  2  0  0  0  0
 17 18  1  0  0  0  0
 18 19  2  0  0  0  0
 18 21  1  0  0  0  0
 19 20  1  0  0  0  0
 21 22  2  0  0  0  0
 21 25  1  0  0  0  0
 22 23  1  0  0  0  0
 23 24  1  0  0  0  0
 23 26  1  0  0  0  0
 24 25  2  0  0  0  0
 26 27  1  0  0  0  0
 27 28  1  0  0  0  0
 27 29  1  0  0  0  0
 27 30  1  0  0  0  0
  2 31  1  0  0  0  0
  3 32  1  0  0  0  0
  4 33  1  0  0  0  0
  8 34  1  0  0  0  0
 10 35  1  0  0  0  0
 11 36  1  0  0  0  0
 12 37  1  0  0  0  0
 12 38  1  0  0  0  0
 12 39  1  0  0  0  0
 16 40  1  0  0  0  0
 17 41  1  0  0  0  0
 19 42  1  0  0  0  0
 20 43  1  0  0  0  0
 20 44  1  0  0  0  0
 22 45  1  0  0  0  0
 25 46  1  0  0  0  0
 26 47  1  0  0  0  0
 26 48  1  0  0  0  0
 28 49  1  0  0  0  0
 29 50  1  0  0  0  0
 29 51  1  0  0  0  0
 29 52  1  0  0  0  0
 30 53  1  0  0  0  0
 30 54  1  0  0  0  0
 30 55  1  0  0  0  0
M  END
> <Name>
20

> <IC50[uM]>
0.016

$$$$
20
  -OEChem-05192314333D
 Structure written by MMmdl.
 55 58  0     0  0  0  0  0  0999 V2000
   -6.3740   12.3524  -12.0161 C   0  0  0  0  0  0  0  0  0  0  0  0
   -6.5100   11.8065  -10.7374 C   0  0  0  0  0  0  0  0  0  0  0  0
   -7.7222   10.5841  -13.0265 C   0  0  0  0  0  0  0  0  0  0  0  0
   -6.9887   11.7756  -13.1353 C   0  0  0  0  0  0  0  0  0  0  0  0
   -7.8163   10.0177  -11.7563 C   0  0  0  0  0  0  0  0  0  0  0  0
   -7.2425   10.6185  -10.6022 C   0  0  0  0  0  0  0  0  0  0  0  0
   -7.6172    9.7487   -9.5090 C   0  0  0  0  0  0  0  0  0  0  0  0
   -8.2846    8.7289   -9.9848 N   0  0  0  0  0  0  0  0  0  0  0  0
   -8.4176    8.8659  -11.2967 N   0  0  0  0  0  0  0  0  0  0  0  0
   -7.3368    9.8884   -8.0257 C   0  0  0  0  0  0  0  0  0  0  0  0
   -4.4023   13.6480  -11.4578 N   0  0  0  0  0  0  0  0  0  0  0  0
   -3.4623   14.7747  -11.4948 C   0  0  0  0  0  0  0  0  0  0  0  0
   -5.5331   13.6158  -12.1961 C   0  0  0  0  0  0  0  0  0  0  0  0
   -5.8776   14.5022  -12.9731 O   0  0  0  0  0  0  0  0  0  0  0  0
   -5.9585   10.4860   -7.7354 C   0  0  0  0  0  0  0  0  0  0  0  0
   -5.8494   11.7555   -7.1596 C   0  0  0  0  0  0  0  0  0  0  0  0
   -4.5968   12.3068   -6.9148 C   0  0  0  0  0  0  0  0  0  0  0  0
   -3.4468   11.5860   -7.2370 C   0  0  0  0  0  0  0  0  0  0  0  0
   -3.5513   10.3089   -7.8057 C   0  0  0  0  0  0  0  0  0  0  0  0
   -4.8090    9.7654   -8.0523 C   0  0  0  0  0  0  0  0  0  0  0  0
   -2.0901   12.1669   -6.9801 C   0  0  0  0  0  0  0  0  0  0  0  0
   -1.7479   13.4121   -6.4872 C   0  0  0  0  0  0  0  0  0  0  0  0
   -0.3990   13.4663   -6.4328 N   0  0  0  0  0  0  0  0  0  0  0  0
    0.1869   12.3691   -6.8386 N   0  0  0  0  0  0  0  0  0  0  0  0
   -0.8034   11.5628   -7.1902 C   0  0  0  0  0  0  0  0  0  0  0  0
    0.4389   14.5894   -5.9640 C   0  0  0  0  0  0  0  0  0  0  0  0
    1.5042   14.2139   -4.8744 C   0  0  0  0  0  0  0  0  0  0  0  0
    2.6302   13.6295   -5.4977 O   0  0  0  0  0  0  0  0  0  0  0  0
    0.9501   13.1612   -3.9053 C   0  0  0  0  0  0  0  0  0  0  0  0
    2.0179   15.4484   -4.1037 C   0  0  0  0  0  0  0  0  0  0  0  0
   -6.0641   12.2854   -9.8782 H   0  0  0  0  0  0  0  0  0  0  0  0
   -8.1913   10.1279  -13.8857 H   0  0  0  0  0  0  0  0  0  0  0  0
   -6.8965   12.2561  -14.0981 H   0  0  0  0  0  0  0  0  0  0  0  0
   -8.8966    8.2121  -11.8824 H   0  0  0  0  0  0  0  0  0  0  0  0
   -8.0357    9.5970   -7.2556 H   0  0  0  0  0  0  0  0  0  0  0  0
   -4.1971   12.8720  -10.8613 H   0  0  0  0  0  0  0  0  0  0  0  0
   -2.6221   14.5745  -10.8136 H   0  0  0  0  0  0  0  0  0  0  0  0
   -3.0817   14.9010  -12.5191 H   0  0  0  0  0  0  0  0  0  0  0  0
   -3.9787   15.6934  -11.1797 H   0  0  0  0  0  0  0  0  0  0  0  0
   -6.7407   12.3094   -6.9043 H   0  0  0  0  0  0  0  0  0  0  0  0
   -4.5143   13.2904   -6.4764 H   0  0  0  0  0  0  0  0  0  0  0  0
   -2.6607    9.7496   -8.0512 H   0  0  0  0  0  0  0  0  0  0  0  0
   -4.8619    8.8217   -7.4897 H   0  0  0  0  0  0  0  0  0  0  0  0
   -4.8560    9.5526   -9.1305 H   0  0  0  0  0  0  0  0  0  0  0  0
   -2.4321   14.1965   -6.1989 H   0  0  0  0  0  0  0  0  0  0  0  0
   -0.6606   10.5688   -7.5878 H   0  0  0  0  0  0  0  0  0  0  0  0
    0.9713   15.0036   -6.8329 H   0  0  0  0  0  0  0  0  0  0  0  0
   -0.2256   15.3572   -5.5409 H   0  0  0  0  0  0  0  0  0  0  0  0
    3.2752   13.4021   -4.8384 H   0  0  0  0  0  0  0  0  0  0  0  0
    1.7145   12.9160   -3.1533 H   0  0  0  0  0  0  0  0  0  0  0  0
    0.0563   13.5598   -3.4030 H   0  0  0  0  0  0  0  0  0  0  0  0
    0.6818   12.2530   -4.4649 H   0  0  0  0  0  0  0  0  0  0  0  0
    2.7591   15.1317   -3.3552 H   0  0  0  0  0  0  0  0  0  0  0  0
    2.4859   16.1517   -4.8082 H   0  0  0  0  0  0  0  0  0  0  0  0
    1.1747   15.9421   -3.5985 H   0  0  0  0  0  0  0  0  0  0  0  0
  1  2  2  0  0  0  0
  1  4  1  0  0  0  0
  1 13  1  0  0  0  0
  2  6  1  0  0  0  0
  3  4  2  0  0  0  0
  3  5  1  0  0  0  0
  5  6  2  0  0  0  0
  5  9  1  0  0  0  0
  6  7  1  0  0  0  0
  7  8  2  0  0  0  0
  7 10  1  0  0  0  0
  8  9  1  0  0  0  0
 10 15  2  3  0  0  0
 11 12  1  0  0  0  0
 11 13  1  0  0  0  0
 13 14  2  0  0  0  0
 15 16  1  0  0  0  0
 15 20  1  0  0  0  0
 16 17  2  0  0  0  0
 17 18  1  0  0  0  0
 18 19  2  0  0  0  0
 18 21  1  0  0  0  0
 19 20  1  0  0  0  0
 21 22  2  0  0  0  0
 21 25  1  0  0  0  0
 22 23  1  0  0  0  0
 23 24  1  0  0  0  0
 23 26  1  0  0  0  0
 24 25  2  0  0  0  0
 26 27  1  0  0  0  0
 27 28  1  0  0  0  0
 27 29  1  0  0  0  0
 27 30  1  0  0  0  0
  2 31  1  0  0  0  0
  3 32  1  0  0  0  0
  4 33  1  0  0  0  0
  9 34  1  0  0  0  0
 10 35  1  0  0  0  0
 11 36  1  0  0  0  0
 12 37  1  0  0  0  0
 12 38  1  0  0  0  0
 12 39  1  0  0  0  0
 16 40  1  0  0  0  0
 17 41  1  0  0  0  0
 19 42  1  0  0  0  0
 20 43  1  0  0  0  0
 20 44  1  0  0  0  0
 22 45  1  0  0  0  0
 25 46  1  0  0  0  0
 26 47  1  0  0  0  0
 26 48  1  0  0  0  0
 28 49  1  0  0  0  0
 29 50  1  0  0  0  0
 29 51  1  0  0  0  0
 29 52  1  0  0  0  0
 30 53  1  0  0  0  0
 30 54  1  0  0  0  0
 30 55  1  0  0  0  0
M  END
> <Name>
20

> <IC50[uM]>
0.016

$$$$
20
  -OEChem-05192314333D
 Structure written by MMmdl.
 55 58  0     0  0  0  0  0  0999 V2000
   -6.3740   12.3524  -12.0161 C   0  0  0  0  0  0  0  0  0  0  0  0
   -6.5100   11.8065  -10.7374 C   0  0  0  0  0  0  0  0  0  0  0  0
   -7.7222   10.5841  -13.0265 C   0  0  0  0  0  0  0  0  0  0  0  0
   -6.9887   11.7756  -13.1353 C   0  0  0  0  0  0  0  0  0  0  0  0
   -7.8163   10.0177  -11.7563 C   0  0  0  0  0  0  0  0  0  0  0  0
   -7.2425   10.6185  -10.6022 C   0  0  0  0  0  0  0  0  0  0  0  0
   -7.6172    9.7487   -9.5090 C   0  0  0  0  0  0  0  0  0  0  0  0
   -8.2846    8.7289   -9.9848 N   0  0  0  0  0  0  0  0  0  0  0  0
   -8.4176    8.8659  -11.2967 N   0  0  0  0  0  0  0  0  0  0  0  0
   -7.3368    9.8884   -8.0257 C   0  0  0  0  0  0  0  0  0  0  0  0
   -4.4023   13.6480  -11.4578 N   0  0  0  0  0  0  0  0  0  0  0  0
   -3.4623   14.7747  -11.4948 C   0  0  0  0  0  0  0  0  0  0  0  0
   -5.5331   13.6158  -12.1961 C   0  0  0  0  0  0  0  0  0  0  0  0
   -5.8776   14.5022  -12.9731 O   0  0  0  0  0  0  0  0  0  0  0  0
   -5.9585   10.4860   -7.7354 C   0  0  0  0  0  0  0  0  0  0  0  0
   -5.8494   11.7555   -7.1596 C   0  0  0  0  0  0  0  0  0  0  0  0
   -4.5968   12.3068   -6.9148 C   0  0  0  0  0  0  0  0  0  0  0  0
   -3.4468   11.5860   -7.2370 C   0  0  0  0  0  0  0  0  0  0  0  0
   -3.5513   10.3089   -7.8057 C   0  0  0  0  0  0  0  0  0  0  0  0
   -4.8090    9.7654   -8.0523 C   0  0  0  0  0  0  0  0  0  0  0  0
   -2.0901   12.1669   -6.9801 C   0  0  0  0  0  0  0  0  0  0  0  0
   -1.7479   13.4121   -6.4872 C   0  0  0  0  0  0  0  0  0  0  0  0
   -0.3990   13.4663   -6.4328 N   0  0  0  0  0  0  0  0  0  0  0  0
    0.1869   12.3691   -6.8386 N   0  0  0  0  0  0  0  0  0  0  0  0
   -0.8034   11.5628   -7.1902 C   0  0  0  0  0  0  0  0  0  0  0  0
    0.4389   14.5894   -5.9640 C   0  0  0  0  0  0  0  0  0  0  0  0
    1.5042   14.2139   -4.8744 C   0  0  0  0  0  0  0  0  0  0  0  0
    2.6302   13.6295   -5.4977 O   0  0  0  0  0  0  0  0  0  0  0  0
    0.9501   13.1612   -3.9053 C   0  0  0  0  0  0  0  0  0  0  0  0
    2.0179   15.4484   -4.1037 C   0  0  0  0  0  0  0  0  0  0  0  0
   -6.0641   12.2854   -9.8782 H   0  0  0  0  0  0  0  0  0  0  0  0
   -8.1913   10.1279  -13.8857 H   0  0  0  0  0  0  0  0  0  0  0  0
   -6.8965   12.2561  -14.0981 H   0  0  0  0  0  0  0  0  0  0  0  0
   -8.6387    7.9660   -9.4439 H   0  0  0  0  0  0  0  0  0  0  0  0
   -8.0357    9.5970   -7.2556 H   0  0  0  0  0  0  0  0  0  0  0  0
   -2.6221   14.5745  -10.8136 H   0  0  0  0  0  0  0  0  0  0  0  0
   -3.0817   14.9010  -12.5191 H   0  0  0  0  0  0  0  0  0  0  0  0
   -3.9787   15.6934  -11.1797 H   0  0  0  0  0  0  0  0  0  0  0  0
   -5.2393   15.2056  -12.9549 H   0  0  0  0  0  0  0  0  0  0  0  0
   -6.7407   12.3094   -6.9043 H   0  0  0  0  0  0  0  0  0  0  0  0
   -4.5143   13.2904   -6.4764 H   0  0  0  0  0  0  0  0  0  0  0  0
   -3.4456   11.1385   -6.2321 H   0  0  0  0  0  0  0  0  0  0  0  0
   -2.6607    9.7496   -8.0512 H   0  0  0  0  0  0  0  0  0  0  0  0
   -4.8939    8.7820   -8.4907 H   0  0  0  0  0  0  0  0  0  0  0  0
   -2.4321   14.1965   -6.1989 H   0  0  0  0  0  0  0  0  0  0  0  0
   -0.6606   10.5688   -7.5878 H   0  0  0  0  0  0  0  0  0  0  0  0
    0.9713   15.0036   -6.8329 H   0  0  0  0  0  0  0  0  0  0  0  0
   -0.2256   15.3572   -5.5409 H   0  0  0  0  0  0  0  0  0  0  0  0
    3.2752   13.4021   -4.8384 H   0  0  0  0  0  0  0  0  0  0  0  0
    1.7145   12.9160   -3.1533 H   0  0  0  0  0  0  0  0  0  0  0  0
    0.0563   13.5598   -3.4030 H   0  0  0  0  0  0  0  0  0  0  0  0
    0.6818   12.2530   -4.4649 H   0  0  0  0  0  0  0  0  0  0  0  0
    2.7591   15.1317   -3.3552 H   0  0  0  0  0  0  0  0  0  0  0  0
    2.4859   16.1517   -4.8082 H   0  0  0  0  0  0  0  0  0  0  0  0
    1.1747   15.9421   -3.5985 H   0  0  0  0  0  0  0  0  0  0  0  0
  1  2  2  0  0  0  0
  1  4  1  0  0  0  0
  1 13  1  0  0  0  0
  2  6  1  0  0  0  0
  3  4  2  0  0  0  0
  3  5  1  0  0  0  0
  5  6  1  0  0  0  0
  5  9  2  0  0  0  0
  6  7  2  0  0  0  0
  7  8  1  0  0  0  0
  7 10  1  0  0  0  0
  8  9  1  0  0  0  0
 10 15  2  0  0  0  0
 11 12  1  0  0  0  0
 11 13  2  0  0  0  0
 13 14  1  0  0  0  0
 15 16  1  0  0  0  0
 15 20  1  0  0  0  0
 16 17  2  0  0  0  0
 17 18  1  0  0  0  0
 18 19  1  0  0  0  0
 18 21  1  0  0  0  0
 19 20  2  0  0  0  0
 21 22  2  0  0  0  0
 21 25  1  0  0  0  0
 22 23  1  0  0  0  0
 23 24  1  0  0  0  0
 23 26  1  0  0  0  0
 24 25  2  0  0  0  0
 26 27  1  0  0  0  0
 27 28  1  0  0  0  0
 27 29  1  0  0  0  0
 27 30  1  0  0  0  0
  2 31  1  0  0  0  0
  3 32  1  0  0  0  0
  4 33  1  0  0  0  0
  8 34  1  0  0  0  0
 10 35  1  0  0  0  0
 12 36  1  0  0  0  0
 12 37  1  0  0  0  0
 12 38  1  0  0  0  0
 14 39  1  0  0  0  0
 16 40  1  0  0  0  0
 17 41  1  0  0  0  0
 18 42  1  0  0  0  0
 19 43  1  0  0  0  0
 20 44  1  0  0  0  0
 22 45  1  0  0  0  0
 25 46  1  0  0  0  0
 26 47  1  0  0  0  0
 26 48  1  0  0  0  0
 28 49  1  0  0  0  0
 29 50  1  0  0  0  0
 29 51  1  0  0  0  0
 29 52  1  0  0  0  0
 30 53  1  0  0  0  0
 30 54  1  0  0  0  0
 30 55  1  0  0  0  0
M  END
> <Name>
20

> <IC50[uM]>
0.016

$$$$
20
  -OEChem-05192314333D
 Structure written by MMmdl.
 55 58  0     0  0  0  0  0  0999 V2000
   -6.3740   12.3524  -12.0161 C   0  0  0  0  0  0  0  0  0  0  0  0
   -6.5100   11.8065  -10.7374 C   0  0  0  0  0  0  0  0  0  0  0  0
   -7.7222   10.5841  -13.0265 C   0  0  0  0  0  0  0  0  0  0  0  0
   -6.9887   11.7756  -13.1353 C   0  0  0  0  0  0  0  0  0  0  0  0
   -7.8163   10.0177  -11.7563 C   0  0  0  0  0  0  0  0  0  0  0  0
   -7.2425   10.6185  -10.6022 C   0  0  0  0  0  0  0  0  0  0  0  0
   -7.6172    9.7487   -9.5090 C   0  0  0  0  0  0  0  0  0  0  0  0
   -8.2846    8.7289   -9.9848 N   0  0  0  0  0  0  0  0  0  0  0  0
   -8.4176    8.8659  -11.2967 N   0  0  0  0  0  0  0  0  0  0  0  0
   -7.3368    9.8884   -8.0257 C   0  0  0  0  0  0  0  0  0  0  0  0
   -4.4023   13.6480  -11.4578 N   0  0  0  0  0  0  0  0  0  0  0  0
   -3.4623   14.7747  -11.4948 C   0  0  0  0  0  0  0  0  0  0  0  0
   -5.5331   13.6158  -12.1961 C   0  0  0  0  0  0  0  0  0  0  0  0
   -5.8776   14.5022  -12.9731 O   0  0  0  0  0  0  0  0  0  0  0  0
   -5.9585   10.4860   -7.7354 C   0  0  0  0  0  0  0  0  0  0  0  0
   -5.8494   11.7555   -7.1596 C   0  0  0  0  0  0  0  0  0  0  0  0
   -4.5968   12.3068   -6.9148 C   0  0  0  0  0  0  0  0  0  0  0  0
   -3.4468   11.5860   -7.2370 C   0  0  0  0  0  0  0  0  0  0  0  0
   -3.5513   10.3089   -7.8057 C   0  0  0  0  0  0  0  0  0  0  0  0
   -4.8090    9.7654   -8.0523 C   0  0  0  0  0  0  0  0  0  0  0  0
   -2.0901   12.1669   -6.9801 C   0  0  0  0  0  0  0  0  0  0  0  0
   -1.7479   13.4121   -6.4872 C   0  0  0  0  0  0  0  0  0  0  0  0
   -0.3990   13.4663   -6.4328 N   0  0  0  0  0  0  0  0  0  0  0  0
    0.1869   12.3691   -6.8386 N   0  0  0  0  0  0  0  0  0  0  0  0
   -0.8034   11.5628   -7.1902 C   0  0  0  0  0  0  0  0  0  0  0  0
    0.4389   14.5894   -5.9640 C   0  0  0  0  0  0  0  0  0  0  0  0
    1.5042   14.2139   -4.8744 C   0  0  0  0  0  0  0  0  0  0  0  0
    2.6302   13.6295   -5.4977 O   0  0  0  0  0  0  0  0  0  0  0  0
    0.9501   13.1612   -3.9053 C   0  0  0  0  0  0  0  0  0  0  0  0
    2.0179   15.4484   -4.1037 C   0  0  0  0  0  0  0  0  0  0  0  0
   -6.0641   12.2854   -9.8782 H   0  0  0  0  0  0  0  0  0  0  0  0
   -8.1913   10.1279  -13.8857 H   0  0  0  0  0  0  0  0  0  0  0  0
   -6.8965   12.2561  -14.0981 H   0  0  0  0  0  0  0  0  0  0  0  0
   -8.8966    8.2121  -11.8824 H   0  0  0  0  0  0  0  0  0  0  0  0
   -8.0357    9.5970   -7.2556 H   0  0  0  0  0  0  0  0  0  0  0  0
   -2.6221   14.5745  -10.8136 H   0  0  0  0  0  0  0  0  0  0  0  0
   -3.0817   14.9010  -12.5191 H   0  0  0  0  0  0  0  0  0  0  0  0
   -3.9787   15.6934  -11.1797 H   0  0  0  0  0  0  0  0  0  0  0  0
   -5.2393   15.2056  -12.9549 H   0  0  0  0  0  0  0  0  0  0  0  0
   -6.7407   12.3094   -6.9043 H   0  0  0  0  0  0  0  0  0  0  0  0
   -4.5143   13.2904   -6.4764 H   0  0  0  0  0  0  0  0  0  0  0  0
   -3.4456   11.1385   -6.2321 H   0  0  0  0  0  0  0  0  0  0  0  0
   -2.6607    9.7496   -8.0512 H   0  0  0  0  0  0  0  0  0  0  0  0
   -4.8939    8.7820   -8.4907 H   0  0  0  0  0  0  0  0  0  0  0  0
   -2.4321   14.1965   -6.1989 H   0  0  0  0  0  0  0  0  0  0  0  0
   -0.6606   10.5688   -7.5878 H   0  0  0  0  0  0  0  0  0  0  0  0
    0.9713   15.0036   -6.8329 H   0  0  0  0  0  0  0  0  0  0  0  0
   -0.2256   15.3572   -5.5409 H   0  0  0  0  0  0  0  0  0  0  0  0
    3.2752   13.4021   -4.8384 H   0  0  0  0  0  0  0  0  0  0  0  0
    1.7145   12.9160   -3.1533 H   0  0  0  0  0  0  0  0  0  0  0  0
    0.0563   13.5598   -3.4030 H   0  0  0  0  0  0  0  0  0  0  0  0
    0.6818   12.2530   -4.4649 H   0  0  0  0  0  0  0  0  0  0  0  0
    2.7591   15.1317   -3.3552 H   0  0  0  0  0  0  0  0  0  0  0  0
    2.4859   16.1517   -4.8082 H   0  0  0  0  0  0  0  0  0  0  0  0
    1.1747   15.9421   -3.5985 H   0  0  0  0  0  0  0  0  0  0  0  0
  1  2  2  0  0  0  0
  1  4  1  0  0  0  0
  1 13  1  0  0  0  0
  2  6  1  0  0  0  0
  3  4  2  0  0  0  0
  3  5  1  0  0  0  0
  5  6  2  0  0  0  0
  5  9  1  0  0  0  0
  6  7  1  0  0  0  0
  7  8  2  0  0  0  0
  7 10  1  0  0  0  0
  8  9  1  0  0  0  0
 10 15  2  0  0  0  0
 11 12  1  0  0  0  0
 11 13  2  0  0  0  0
 13 14  1  0  0  0  0
 15 16  1  0  0  0  0
 15 20  1  0  0  0  0
 16 17  2  0  0  0  0
 17 18  1  0  0  0  0
 18 19  1  0  0  0  0
 18 21  1  0  0  0  0
 19 20  2  0  0  0  0
 21 22  2  0  0  0  0
 21 25  1  0  0  0  0
 22 23  1  0  0  0  0
 23 24  1  0  0  0  0
 23 26  1  0  0  0  0
 24 25  2  0  0  0  0
 26 27  1  0  0  0  0
 27 28  1  0  0  0  0
 27 29  1  0  0  0  0
 27 30  1  0  0  0  0
  2 31  1  0  0  0  0
  3 32  1  0  0  0  0
  4 33  1  0  0  0  0
  9 34  1  0  0  0  0
 10 35  1  0  0  0  0
 12 36  1  0  0  0  0
 12 37  1  0  0  0  0
 12 38  1  0  0  0  0
 14 39  1  0  0  0  0
 16 40  1  0  0  0  0
 17 41  1  0  0  0  0
 18 42  1  0  0  0  0
 19 43  1  0  0  0  0
 20 44  1  0  0  0  0
 22 45  1  0  0  0  0
 25 46  1  0  0  0  0
 26 47  1  0  0  0  0
 26 48  1  0  0  0  0
 28 49  1  0  0  0  0
 29 50  1  0  0  0  0
 29 51  1  0  0  0  0
 29 52  1  0  0  0  0
 30 53  1  0  0  0  0
 30 54  1  0  0  0  0
 30 55  1  0  0  0  0
M  END
> <Name>
20

> <IC50[uM]>
0.016

$$$$
20
  -OEChem-05192314333D
 Structure written by MMmdl.
 55 58  0     0  0  0  0  0  0999 V2000
   -6.3740   12.3524  -12.0161 C   0  0  0  0  0  0  0  0  0  0  0  0
   -6.5100   11.8065  -10.7374 C   0  0  0  0  0  0  0  0  0  0  0  0
   -7.7222   10.5841  -13.0265 C   0  0  0  0  0  0  0  0  0  0  0  0
   -6.9887   11.7756  -13.1353 C   0  0  0  0  0  0  0  0  0  0  0  0
   -7.8163   10.0177  -11.7563 C   0  0  0  0  0  0  0  0  0  0  0  0
   -7.2425   10.6185  -10.6022 C   0  0  0  0  0  0  0  0  0  0  0  0
   -7.6172    9.7487   -9.5090 C   0  0  0  0  0  0  0  0  0  0  0  0
   -8.2846    8.7289   -9.9848 N   0  0  0  0  0  0  0  0  0  0  0  0
   -8.4176    8.8659  -11.2967 N   0  0  0  0  0  0  0  0  0  0  0  0
   -7.3368    9.8884   -8.0257 C   0  0  0  0  0  0  0  0  0  0  0  0
   -4.4023   13.6480  -11.4578 N   0  0  0  0  0  0  0  0  0  0  0  0
   -3.4623   14.7747  -11.4948 C   0  0  0  0  0  0  0  0  0  0  0  0
   -5.5331   13.6158  -12.1961 C   0  0  0  0  0  0  0  0  0  0  0  0
   -5.8776   14.5022  -12.9731 O   0  0  0  0  0  0  0  0  0  0  0  0
   -5.9585   10.4860   -7.7354 C   0  0  0  0  0  0  0  0  0  0  0  0
   -5.8494   11.7555   -7.1596 C   0  0  0  0  0  0  0  0  0  0  0  0
   -4.5968   12.3068   -6.9148 C   0  0  0  0  0  0  0  0  0  0  0  0
   -3.4468   11.5860   -7.2370 C   0  0  0  0  0  0  0  0  0  0  0  0
   -3.5513   10.3089   -7.8057 C   0  0  0  0  0  0  0  0  0  0  0  0
   -4.8090    9.7654   -8.0523 C   0  0  0  0  0  0  0  0  0  0  0  0
   -2.0901   12.1669   -6.9801 C   0  0  0  0  0  0  0  0  0  0  0  0
   -1.7479   13.4121   -6.4872 C   0  0  0  0  0  0  0  0  0  0  0  0
   -0.3990   13.4663   -6.4328 N   0  0  0  0  0  0  0  0  0  0  0  0
    0.1869   12.3691   -6.8386 N   0  0  0  0  0  0  0  0  0  0  0  0
   -0.8034   11.5628   -7.1902 C   0  0  0  0  0  0  0  0  0  0  0  0
    0.4389   14.5894   -5.9640 C   0  0  0  0  0  0  0  0  0  0  0  0
    1.5042   14.2139   -4.8744 C   0  0  0  0  0  0  0  0  0  0  0  0
    2.6302   13.6295   -5.4977 O   0  0  0  0  0  0  0  0  0  0  0  0
    0.9501   13.1612   -3.9053 C   0  0  0  0  0  0  0  0  0  0  0  0
    2.0179   15.4484   -4.1037 C   0  0  0  0  0  0  0  0  0  0  0  0
   -6.0641   12.2854   -9.8782 H   0  0  0  0  0  0  0  0  0  0  0  0
   -8.1913   10.1279  -13.8857 H   0  0  0  0  0  0  0  0  0  0  0  0
   -6.8965   12.2561  -14.0981 H   0  0  0  0  0  0  0  0  0  0  0  0
   -8.6387    7.9660   -9.4439 H   0  0  0  0  0  0  0  0  0  0  0  0
   -8.0357    9.5970   -7.2556 H   0  0  0  0  0  0  0  0  0  0  0  0
   -2.6221   14.5745  -10.8136 H   0  0  0  0  0  0  0  0  0  0  0  0
   -3.0817   14.9010  -12.5191 H   0  0  0  0  0  0  0  0  0  0  0  0
   -3.9787   15.6934  -11.1797 H   0  0  0  0  0  0  0  0  0  0  0  0
   -5.2393   15.2056  -12.9549 H   0  0  0  0  0  0  0  0  0  0  0  0
   -6.7407   12.3094   -6.9043 H   0  0  0  0  0  0  0  0  0  0  0  0
   -4.5143   13.2904   -6.4764 H   0  0  0  0  0  0  0  0  0  0  0  0
   -2.6607    9.7496   -8.0512 H   0  0  0  0  0  0  0  0  0  0  0  0
   -4.8619    8.8217   -7.4897 H   0  0  0  0  0  0  0  0  0  0  0  0
   -4.8560    9.5526   -9.1305 H   0  0  0  0  0  0  0  0  0  0  0  0
   -2.4321   14.1965   -6.1989 H   0  0  0  0  0  0  0  0  0  0  0  0
   -0.6606   10.5688   -7.5878 H   0  0  0  0  0  0  0  0  0  0  0  0
    0.9713   15.0036   -6.8329 H   0  0  0  0  0  0  0  0  0  0  0  0
   -0.2256   15.3572   -5.5409 H   0  0  0  0  0  0  0  0  0  0  0  0
    3.2752   13.4021   -4.8384 H   0  0  0  0  0  0  0  0  0  0  0  0
    1.7145   12.9160   -3.1533 H   0  0  0  0  0  0  0  0  0  0  0  0
    0.0563   13.5598   -3.4030 H   0  0  0  0  0  0  0  0  0  0  0  0
    0.6818   12.2530   -4.4649 H   0  0  0  0  0  0  0  0  0  0  0  0
    2.7591   15.1317   -3.3552 H   0  0  0  0  0  0  0  0  0  0  0  0
    2.4859   16.1517   -4.8082 H   0  0  0  0  0  0  0  0  0  0  0  0
    1.1747   15.9421   -3.5985 H   0  0  0  0  0  0  0  0  0  0  0  0
  1  2  2  0  0  0  0
  1  4  1  0  0  0  0
  1 13  1  0  0  0  0
  2  6  1  0  0  0  0
  3  4  2  0  0  0  0
  3  5  1  0  0  0  0
  5  6  1  0  0  0  0
  5  9  2  0  0  0  0
  6  7  2  0  0  0  0
  7  8  1  0  0  0  0
  7 10  1  0  0  0  0
  8  9  1  0  0  0  0
 10 15  2  3  0  0  0
 11 12  1  0  0  0  0
 11 13  2  0  0  0  0
 13 14  1  0  0  0  0
 15 16  1  0  0  0  0
 15 20  1  0  0  0  0
 16 17  2  0  0  0  0
 17 18  1  0  0  0  0
 18 19  2  0  0  0  0
 18 21  1  0  0  0  0
 19 20  1  0  0  0  0
 21 22  2  0  0  0  0
 21 25  1  0  0  0  0
 22 23  1  0  0  0  0
 23 24  1  0  0  0  0
 23 26  1  0  0  0  0
 24 25  2  0  0  0  0
 26 27  1  0  0  0  0
 27 28  1  0  0  0  0
 27 29  1  0  0  0  0
 27 30  1  0  0  0  0
  2 31  1  0  0  0  0
  3 32  1  0  0  0  0
  4 33  1  0  0  0  0
  8 34  1  0  0  0  0
 10 35  1  0  0  0  0
 12 36  1  0  0  0  0
 12 37  1  0  0  0  0
 12 38  1  0  0  0  0
 14 39  1  0  0  0  0
 16 40  1  0  0  0  0
 17 41  1  0  0  0  0
 19 42  1  0  0  0  0
 20 43  1  0  0  0  0
 20 44  1  0  0  0  0
 22 45  1  0  0  0  0
 25 46  1  0  0  0  0
 26 47  1  0  0  0  0
 26 48  1  0  0  0  0
 28 49  1  0  0  0  0
 29 50  1  0  0  0  0
 29 51  1  0  0  0  0
 29 52  1  0  0  0  0
 30 53  1  0  0  0  0
 30 54  1  0  0  0  0
 30 55  1  0  0  0  0
M  END
> <Name>
20

> <IC50[uM]>
0.016

$$$$
20
  -OEChem-05192314333D
 Structure written by MMmdl.
 55 58  0     0  0  0  0  0  0999 V2000
   -6.3740   12.3524  -12.0161 C   0  0  0  0  0  0  0  0  0  0  0  0
   -6.5100   11.8065  -10.7374 C   0  0  0  0  0  0  0  0  0  0  0  0
   -7.7222   10.5841  -13.0265 C   0  0  0  0  0  0  0  0  0  0  0  0
   -6.9887   11.7756  -13.1353 C   0  0  0  0  0  0  0  0  0  0  0  0
   -7.8163   10.0177  -11.7563 C   0  0  0  0  0  0  0  0  0  0  0  0
   -7.2425   10.6185  -10.6022 C   0  0  0  0  0  0  0  0  0  0  0  0
   -7.6172    9.7487   -9.5090 C   0  0  0  0  0  0  0  0  0  0  0  0
   -8.2846    8.7289   -9.9848 N   0  0  0  0  0  0  0  0  0  0  0  0
   -8.4176    8.8659  -11.2967 N   0  0  0  0  0  0  0  0  0  0  0  0
   -7.3368    9.8884   -8.0257 C   0  0  0  0  0  0  0  0  0  0  0  0
   -4.4023   13.6480  -11.4578 N   0  0  0  0  0  0  0  0  0  0  0  0
   -3.4623   14.7747  -11.4948 C   0  0  0  0  0  0  0  0  0  0  0  0
   -5.5331   13.6158  -12.1961 C   0  0  0  0  0  0  0  0  0  0  0  0
   -5.8776   14.5022  -12.9731 O   0  0  0  0  0  0  0  0  0  0  0  0
   -5.9585   10.4860   -7.7354 C   0  0  0  0  0  0  0  0  0  0  0  0
   -5.8494   11.7555   -7.1596 C   0  0  0  0  0  0  0  0  0  0  0  0
   -4.5968   12.3068   -6.9148 C   0  0  0  0  0  0  0  0  0  0  0  0
   -3.4468   11.5860   -7.2370 C   0  0  0  0  0  0  0  0  0  0  0  0
   -3.5513   10.3089   -7.8057 C   0  0  0  0  0  0  0  0  0  0  0  0
   -4.8090    9.7654   -8.0523 C   0  0  0  0  0  0  0  0  0  0  0  0
   -2.0901   12.1669   -6.9801 C   0  0  0  0  0  0  0  0  0  0  0  0
   -1.7479   13.4121   -6.4872 C   0  0  0  0  0  0  0  0  0  0  0  0
   -0.3990   13.4663   -6.4328 N   0  0  0  0  0  0  0  0  0  0  0  0
    0.1869   12.3691   -6.8386 N   0  0  0  0  0  0  0  0  0  0  0  0
   -0.8034   11.5628   -7.1902 C   0  0  0  0  0  0  0  0  0  0  0  0
    0.4389   14.5894   -5.9640 C   0  0  0  0  0  0  0  0  0  0  0  0
    1.5042   14.2139   -4.8744 C   0  0  0  0  0  0  0  0  0  0  0  0
    2.6302   13.6295   -5.4977 O   0  0  0  0  0  0  0  0  0  0  0  0
    0.9501   13.1612   -3.9053 C   0  0  0  0  0  0  0  0  0  0  0  0
    2.0179   15.4484   -4.1037 C   0  0  0  0  0  0  0  0  0  0  0  0
   -6.0641   12.2854   -9.8782 H   0  0  0  0  0  0  0  0  0  0  0  0
   -8.1913   10.1279  -13.8857 H   0  0  0  0  0  0  0  0  0  0  0  0
   -6.8965   12.2561  -14.0981 H   0  0  0  0  0  0  0  0  0  0  0  0
   -8.8966    8.2121  -11.8824 H   0  0  0  0  0  0  0  0  0  0  0  0
   -8.0357    9.5970   -7.2556 H   0  0  0  0  0  0  0  0  0  0  0  0
   -2.6221   14.5745  -10.8136 H   0  0  0  0  0  0  0  0  0  0  0  0
   -3.0817   14.9010  -12.5191 H   0  0  0  0  0  0  0  0  0  0  0  0
   -3.9787   15.6934  -11.1797 H   0  0  0  0  0  0  0  0  0  0  0  0
   -5.2393   15.2056  -12.9549 H   0  0  0  0  0  0  0  0  0  0  0  0
   -6.7407   12.3094   -6.9043 H   0  0  0  0  0  0  0  0  0  0  0  0
   -4.5143   13.2904   -6.4764 H   0  0  0  0  0  0  0  0  0  0  0  0
   -2.6607    9.7496   -8.0512 H   0  0  0  0  0  0  0  0  0  0  0  0
   -4.8619    8.8217   -7.4897 H   0  0  0  0  0  0  0  0  0  0  0  0
   -4.8560    9.5526   -9.1305 H   0  0  0  0  0  0  0  0  0  0  0  0
   -2.4321   14.1965   -6.1989 H   0  0  0  0  0  0  0  0  0  0  0  0
   -0.6606   10.5688   -7.5878 H   0  0  0  0  0  0  0  0  0  0  0  0
    0.9713   15.0036   -6.8329 H   0  0  0  0  0  0  0  0  0  0  0  0
   -0.2256   15.3572   -5.5409 H   0  0  0  0  0  0  0  0  0  0  0  0
    3.2752   13.4021   -4.8384 H   0  0  0  0  0  0  0  0  0  0  0  0
    1.7145   12.9160   -3.1533 H   0  0  0  0  0  0  0  0  0  0  0  0
    0.0563   13.5598   -3.4030 H   0  0  0  0  0  0  0  0  0  0  0  0
    0.6818   12.2530   -4.4649 H   0  0  0  0  0  0  0  0  0  0  0  0
    2.7591   15.1317   -3.3552 H   0  0  0  0  0  0  0  0  0  0  0  0
    2.4859   16.1517   -4.8082 H   0  0  0  0  0  0  0  0  0  0  0  0
    1.1747   15.9421   -3.5985 H   0  0  0  0  0  0  0  0  0  0  0  0
  1  2  2  0  0  0  0
  1  4  1  0  0  0  0
  1 13  1  0  0  0  0
  2  6  1  0  0  0  0
  3  4  2  0  0  0  0
  3  5  1  0  0  0  0
  5  6  2  0  0  0  0
  5  9  1  0  0  0  0
  6  7  1  0  0  0  0
  7  8  2  0  0  0  0
  7 10  1  0  0  0  0
  8  9  1  0  0  0  0
 10 15  2  3  0  0  0
 11 12  1  0  0  0  0
 11 13  2  0  0  0  0
 13 14  1  0  0  0  0
 15 16  1  0  0  0  0
 15 20  1  0  0  0  0
 16 17  2  0  0  0  0
 17 18  1  0  0  0  0
 18 19  2  0  0  0  0
 18 21  1  0  0  0  0
 19 20  1  0  0  0  0
 21 22  2  0  0  0  0
 21 25  1  0  0  0  0
 22 23  1  0  0  0  0
 23 24  1  0  0  0  0
 23 26  1  0  0  0  0
 24 25  2  0  0  0  0
 26 27  1  0  0  0  0
 27 28  1  0  0  0  0
 27 29  1  0  0  0  0
 27 30  1  0  0  0  0
  2 31  1  0  0  0  0
  3 32  1  0  0  0  0
  4 33  1  0  0  0  0
  9 34  1  0  0  0  0
 10 35  1  0  0  0  0
 12 36  1  0  0  0  0
 12 37  1  0  0  0  0
 12 38  1  0  0  0  0
 14 39  1  0  0  0  0
 16 40  1  0  0  0  0
 17 41  1  0  0  0  0
 19 42  1  0  0  0  0
 20 43  1  0  0  0  0
 20 44  1  0  0  0  0
 22 45  1  0  0  0  0
 25 46  1  0  0  0  0
 26 47  1  0  0  0  0
 26 48  1  0  0  0  0
 28 49  1  0  0  0  0
 29 50  1  0  0  0  0
 29 51  1  0  0  0  0
 29 52  1  0  0  0  0
 30 53  1  0  0  0  0
 30 54  1  0  0  0  0
 30 55  1  0  0  0  0
M  END
> <Name>
20

> <IC50[uM]>
0.016

$$$$
20
  -OEChem-05192314333D
 Structure written by MMmdl.
 55 58  0     1  0  0  0  0  0999 V2000
   -6.3740   12.3524  -12.0161 C   0  0  0  0  0  0  0  0  0  0  0  0
   -6.5100   11.8065  -10.7374 C   0  0  0  0  0  0  0  0  0  0  0  0
   -7.7222   10.5841  -13.0265 C   0  0  0  0  0  0  0  0  0  0  0  0
   -6.9887   11.7756  -13.1353 C   0  0  0  0  0  0  0  0  0  0  0  0
   -7.8163   10.0177  -11.7563 C   0  0  0  0  0  0  0  0  0  0  0  0
   -7.2425   10.6185  -10.6022 C   0  0  0  0  0  0  0  0  0  0  0  0
   -7.6172    9.7487   -9.5090 C   0  0  0  0  0  0  0  0  0  0  0  0
   -8.2846    8.7289   -9.9848 N   0  0  0  0  0  0  0  0  0  0  0  0
   -8.4176    8.8659  -11.2967 N   0  0  0  0  0  0  0  0  0  0  0  0
   -7.3368    9.8884   -8.0257 C   0  0  0  0  0  0  0  0  0  0  0  0
   -4.4023   13.6480  -11.4578 N   0  0  0  0  0  0  0  0  0  0  0  0
   -3.4623   14.7747  -11.4948 C   0  0  0  0  0  0  0  0  0  0  0  0
   -5.5331   13.6158  -12.1961 C   0  0  0  0  0  0  0  0  0  0  0  0
   -5.8776   14.5022  -12.9731 O   0  0  0  0  0  0  0  0  0  0  0  0
   -5.9585   10.4860   -7.7354 C   0  0  0  0  0  0  0  0  0  0  0  0
   -5.8494   11.7555   -7.1596 C   0  0  0  0  0  0  0  0  0  0  0  0
   -4.5968   12.3068   -6.9148 C   0  0  0  0  0  0  0  0  0  0  0  0
   -3.4468   11.5860   -7.2370 C   0  0  0  0  0  0  0  0  0  0  0  0
   -3.5513   10.3089   -7.8057 C   0  0  0  0  0  0  0  0  0  0  0  0
   -4.8090    9.7654   -8.0523 C   0  0  0  0  0  0  0  0  0  0  0  0
   -2.0901   12.1669   -6.9801 C   0  0  3  0  0  0  0  0  0  0  0  0
   -1.7479   13.4121   -6.4872 C   0  0  0  0  0  0  0  0  0  0  0  0
   -0.3990   13.4663   -6.4328 N   0  0  3  0  0  0  0  0  0  0  0  0
    0.1869   12.3691   -6.8386 N   0  0  0  0  0  0  0  0  0  0  0  0
   -0.8034   11.5628   -7.1902 C   0  0  0  0  0  0  0  0  0  0  0  0
    0.4389   14.5894   -5.9640 C   0  0  0  0  0  0  0  0  0  0  0  0
    1.5042   14.2139   -4.8744 C   0  0  0  0  0  0  0  0  0  0  0  0
    2.6302   13.6295   -5.4977 O   0  0  0  0  0  0  0  0  0  0  0  0
    0.9501   13.1612   -3.9053 C   0  0  0  0  0  0  0  0  0  0  0  0
    2.0179   15.4484   -4.1037 C   0  0  0  0  0  0  0  0  0  0  0  0
   -6.0641   12.2854   -9.8782 H   0  0  0  0  0  0  0  0  0  0  0  0
   -8.1913   10.1279  -13.8857 H   0  0  0  0  0  0  0  0  0  0  0  0
   -6.8965   12.2561  -14.0981 H   0  0  0  0  0  0  0  0  0  0  0  0
   -8.0357    9.5970   -7.2556 H   0  0  0  0  0  0  0  0  0  0  0  0
   -4.1971   12.8720  -10.8613 H   0  0  0  0  0  0  0  0  0  0  0  0
   -2.6221   14.5745  -10.8136 H   0  0  0  0  0  0  0  0  0  0  0  0
   -3.0817   14.9010  -12.5191 H   0  0  0  0  0  0  0  0  0  0  0  0
   -3.9787   15.6934  -11.1797 H   0  0  0  0  0  0  0  0  0  0  0  0
   -6.7407   12.3094   -6.9043 H   0  0  0  0  0  0  0  0  0  0  0  0
   -4.5143   13.2904   -6.4764 H   0  0  0  0  0  0  0  0  0  0  0  0
   -2.6607    9.7496   -8.0512 H   0  0  0  0  0  0  0  0  0  0  0  0
   -4.8939    8.7820   -8.4907 H   0  0  0  0  0  0  0  0  0  0  0  0
   -2.1117   11.7665   -5.9558 H   0  0  0  0  0  0  0  0  0  0  0  0
   -2.1296   14.1989   -7.1545 H   0  0  0  0  0  0  0  0  0  0  0  0
   -2.1709   13.5478   -5.4809 H   0  0  0  0  0  0  0  0  0  0  0  0
   -0.6606   10.5688   -7.5878 H   0  0  0  0  0  0  0  0  0  0  0  0
    0.9713   15.0036   -6.8329 H   0  0  0  0  0  0  0  0  0  0  0  0
   -0.2256   15.3572   -5.5409 H   0  0  0  0  0  0  0  0  0  0  0  0
    3.2752   13.4021   -4.8384 H   0  0  0  0  0  0  0  0  0  0  0  0
    1.7145   12.9160   -3.1533 H   0  0  0  0  0  0  0  0  0  0  0  0
    0.0563   13.5598   -3.4030 H   0  0  0  0  0  0  0  0  0  0  0  0
    0.6818   12.2530   -4.4649 H   0  0  0  0  0  0  0  0  0  0  0  0
    2.7591   15.1317   -3.3552 H   0  0  0  0  0  0  0  0  0  0  0  0
    2.4859   16.1517   -4.8082 H   0  0  0  0  0  0  0  0  0  0  0  0
    1.1747   15.9421   -3.5985 H   0  0  0  0  0  0  0  0  0  0  0  0
  1  2  2  0  0  0  0
  1  4  1  0  0  0  0
  1 13  1  0  0  0  0
  2  6  1  0  0  0  0
  3  4  2  0  0  0  0
  3  5  1  0  0  0  0
  5  6  2  0  0  0  0
  5  9  1  0  0  0  0
  6  7  1  0  0  0  0
  7  8  1  0  0  0  0
  7 10  2  3  0  0  0
  8  9  2  0  0  0  0
 10 15  1  0  0  0  0
 11 12  1  0  0  0  0
 11 13  1  0  0  0  0
 13 14  2  0  0  0  0
 15 16  2  0  0  0  0
 15 20  1  0  0  0  0
 16 17  1  0  0  0  0
 17 18  2  0  0  0  0
 18 19  1  0  0  0  0
 18 21  1  0  0  0  0
 19 20  2  0  0  0  0
 21 22  1  0  0  0  0
 21 25  1  0  0  0  0
 22 23  1  0  0  0  0
 23 24  1  0  0  0  0
 23 26  1  0  0  0  0
 24 25  2  0  0  0  0
 26 27  1  0  0  0  0
 27 28  1  0  0  0  0
 27 29  1  0  0  0  0
 27 30  1  0  0  0  0
  2 31  1  0  0  0  0
  3 32  1  0  0  0  0
  4 33  1  0  0  0  0
 10 34  1  0  0  0  0
 11 35  1  0  0  0  0
 12 36  1  0  0  0  0
 12 37  1  0  0  0  0
 12 38  1  0  0  0  0
 16 39  1  0  0  0  0
 17 40  1  0  0  0  0
 19 41  1  0  0  0  0
 20 42  1  0  0  0  0
 21 43  1  0  0  0  0
 22 44  1  0  0  0  0
 22 45  1  0  0  0  0
 25 46  1  0  0  0  0
 26 47  1  0  0  0  0
 26 48  1  0  0  0  0
 28 49  1  0  0  0  0
 29 50  1  0  0  0  0
 29 51  1  0  0  0  0
 29 52  1  0  0  0  0
 30 53  1  0  0  0  0
 30 54  1  0  0  0  0
 30 55  1  0  0  0  0
M  END
> <Name>
20

> <IC50[uM]>
0.016

$$$$
20
  -OEChem-05192314333D
 Structure written by MMmdl.
 55 58  0     1  0  0  0  0  0999 V2000
   -6.3740   12.3524  -12.0161 C   0  0  0  0  0  0  0  0  0  0  0  0
   -6.5100   11.8065  -10.7374 C   0  0  0  0  0  0  0  0  0  0  0  0
   -7.7222   10.5841  -13.0265 C   0  0  0  0  0  0  0  0  0  0  0  0
   -6.9887   11.7756  -13.1353 C   0  0  0  0  0  0  0  0  0  0  0  0
   -7.8163   10.0177  -11.7563 C   0  0  0  0  0  0  0  0  0  0  0  0
   -7.2425   10.6185  -10.6022 C   0  0  0  0  0  0  0  0  0  0  0  0
   -7.6172    9.7487   -9.5090 C   0  0  0  0  0  0  0  0  0  0  0  0
   -8.2846    8.7289   -9.9848 N   0  0  0  0  0  0  0  0  0  0  0  0
   -8.4176    8.8659  -11.2967 N   0  0  0  0  0  0  0  0  0  0  0  0
   -7.3368    9.8884   -8.0257 C   0  0  0  0  0  0  0  0  0  0  0  0
   -4.4023   13.6480  -11.4578 N   0  0  0  0  0  0  0  0  0  0  0  0
   -3.4623   14.7747  -11.4948 C   0  0  0  0  0  0  0  0  0  0  0  0
   -5.5331   13.6158  -12.1961 C   0  0  0  0  0  0  0  0  0  0  0  0
   -5.8776   14.5022  -12.9731 O   0  0  0  0  0  0  0  0  0  0  0  0
   -5.9585   10.4860   -7.7354 C   0  0  0  0  0  0  0  0  0  0  0  0
   -5.8494   11.7555   -7.1596 C   0  0  0  0  0  0  0  0  0  0  0  0
   -4.5968   12.3068   -6.9148 C   0  0  0  0  0  0  0  0  0  0  0  0
   -3.4468   11.5860   -7.2370 C   0  0  0  0  0  0  0  0  0  0  0  0
   -3.5513   10.3089   -7.8057 C   0  0  0  0  0  0  0  0  0  0  0  0
   -4.8090    9.7654   -8.0523 C   0  0  0  0  0  0  0  0  0  0  0  0
   -2.0901   12.1669   -6.9801 C   0  0  3  0  0  0  0  0  0  0  0  0
   -1.7479   13.4121   -6.4872 C   0  0  0  0  0  0  0  0  0  0  0  0
   -0.3990   13.4663   -6.4328 N   0  0  3  0  0  0  0  0  0  0  0  0
    0.1869   12.3691   -6.8386 N   0  0  0  0  0  0  0  0  0  0  0  0
   -0.8034   11.5628   -7.1902 C   0  0  0  0  0  0  0  0  0  0  0  0
    0.4389   14.5894   -5.9640 C   0  0  0  0  0  0  0  0  0  0  0  0
    1.5042   14.2139   -4.8744 C   0  0  0  0  0  0  0  0  0  0  0  0
    2.6302   13.6295   -5.4977 O   0  0  0  0  0  0  0  0  0  0  0  0
    0.9501   13.1612   -3.9053 C   0  0  0  0  0  0  0  0  0  0  0  0
    2.0179   15.4484   -4.1037 C   0  0  0  0  0  0  0  0  0  0  0  0
   -6.0641   12.2854   -9.8782 H   0  0  0  0  0  0  0  0  0  0  0  0
   -8.1913   10.1279  -13.8857 H   0  0  0  0  0  0  0  0  0  0  0  0
   -6.8965   12.2561  -14.0981 H   0  0  0  0  0  0  0  0  0  0  0  0
   -8.0357    9.5970   -7.2556 H   0  0  0  0  0  0  0  0  0  0  0  0
   -2.6221   14.5745  -10.8136 H   0  0  0  0  0  0  0  0  0  0  0  0
   -3.0817   14.9010  -12.5191 H   0  0  0  0  0  0  0  0  0  0  0  0
   -3.9787   15.6934  -11.1797 H   0  0  0  0  0  0  0  0  0  0  0  0
   -5.2393   15.2056  -12.9549 H   0  0  0  0  0  0  0  0  0  0  0  0
   -6.7407   12.3094   -6.9043 H   0  0  0  0  0  0  0  0  0  0  0  0
   -4.5143   13.2904   -6.4764 H   0  0  0  0  0  0  0  0  0  0  0  0
   -2.6607    9.7496   -8.0512 H   0  0  0  0  0  0  0  0  0  0  0  0
   -4.8939    8.7820   -8.4907 H   0  0  0  0  0  0  0  0  0  0  0  0
   -2.1117   11.7665   -5.9558 H   0  0  0  0  0  0  0  0  0  0  0  0
   -2.1296   14.1989   -7.1545 H   0  0  0  0  0  0  0  0  0  0  0  0
   -2.1709   13.5478   -5.4809 H   0  0  0  0  0  0  0  0  0  0  0  0
   -0.6606   10.5688   -7.5878 H   0  0  0  0  0  0  0  0  0  0  0  0
    0.9713   15.0036   -6.8329 H   0  0  0  0  0  0  0  0  0  0  0  0
   -0.2256   15.3572   -5.5409 H   0  0  0  0  0  0  0  0  0  0  0  0
    3.2752   13.4021   -4.8384 H   0  0  0  0  0  0  0  0  0  0  0  0
    1.7145   12.9160   -3.1533 H   0  0  0  0  0  0  0  0  0  0  0  0
    0.0563   13.5598   -3.4030 H   0  0  0  0  0  0  0  0  0  0  0  0
    0.6818   12.2530   -4.4649 H   0  0  0  0  0  0  0  0  0  0  0  0
    2.7591   15.1317   -3.3552 H   0  0  0  0  0  0  0  0  0  0  0  0
    2.4859   16.1517   -4.8082 H   0  0  0  0  0  0  0  0  0  0  0  0
    1.1747   15.9421   -3.5985 H   0  0  0  0  0  0  0  0  0  0  0  0
  1  2  2  0  0  0  0
  1  4  1  0  0  0  0
  1 13  1  0  0  0  0
  2  6  1  0  0  0  0
  3  4  2  0  0  0  0
  3  5  1  0  0  0  0
  5  6  2  0  0  0  0
  5  9  1  0  0  0  0
  6  7  1  0  0  0  0
  7  8  1  0  0  0  0
  7 10  2  3  0  0  0
  8  9  2  0  0  0  0
 10 15  1  0  0  0  0
 11 12  1  0  0  0  0
 11 13  2  0  0  0  0
 13 14  1  0  0  0  0
 15 16  2  0  0  0  0
 15 20  1  0  0  0  0
 16 17  1  0  0  0  0
 17 18  2  0  0  0  0
 18 19  1  0  0  0  0
 18 21  1  0  0  0  0
 19 20  2  0  0  0  0
 21 22  1  0  0  0  0
 21 25  1  0  0  0  0
 22 23  1  0  0  0  0
 23 24  1  0  0  0  0
 23 26  1  0  0  0  0
 24 25  2  0  0  0  0
 26 27  1  0  0  0  0
 27 28  1  0  0  0  0
 27 29  1  0  0  0  0
 27 30  1  0  0  0  0
  2 31  1  0  0  0  0
  3 32  1  0  0  0  0
  4 33  1  0  0  0  0
 10 34  1  0  0  0  0
 12 35  1  0  0  0  0
 12 36  1  0  0  0  0
 12 37  1  0  0  0  0
 14 38  1  0  0  0  0
 16 39  1  0  0  0  0
 17 40  1  0  0  0  0
 19 41  1  0  0  0  0
 20 42  1  0  0  0  0
 21 43  1  0  0  0  0
 22 44  1  0  0  0  0
 22 45  1  0  0  0  0
 25 46  1  0  0  0  0
 26 47  1  0  0  0  0
 26 48  1  0  0  0  0
 28 49  1  0  0  0  0
 29 50  1  0  0  0  0
 29 51  1  0  0  0  0
 29 52  1  0  0  0  0
 30 53  1  0  0  0  0
 30 54  1  0  0  0  0
 30 55  1  0  0  0  0
M  END
> <Name>
20

> <IC50[uM]>
0.016

$$$$
20
  -OEChem-05192314333D
 Structure written by MMmdl.
 55 58  0     1  0  0  0  0  0999 V2000
   -6.3740   12.3524  -12.0161 C   0  0  0  0  0  0  0  0  0  0  0  0
   -6.5100   11.8065  -10.7374 C   0  0  0  0  0  0  0  0  0  0  0  0
   -7.7222   10.5841  -13.0265 C   0  0  0  0  0  0  0  0  0  0  0  0
   -6.9887   11.7756  -13.1353 C   0  0  0  0  0  0  0  0  0  0  0  0
   -7.8163   10.0177  -11.7563 C   0  0  0  0  0  0  0  0  0  0  0  0
   -7.2425   10.6185  -10.6022 C   0  0  0  0  0  0  0  0  0  0  0  0
   -7.6172    9.7487   -9.5090 C   0  0  0  0  0  0  0  0  0  0  0  0
   -8.2846    8.7289   -9.9848 N   0  0  0  0  0  0  0  0  0  0  0  0
   -8.4176    8.8659  -11.2967 N   0  0  0  0  0  0  0  0  0  0  0  0
   -7.3368    9.8884   -8.0257 C   0  0  0  0  0  0  0  0  0  0  0  0
   -4.4023   13.6480  -11.4578 N   0  0  0  0  0  0  0  0  0  0  0  0
   -3.4623   14.7747  -11.4948 C   0  0  0  0  0  0  0  0  0  0  0  0
   -5.5331   13.6158  -12.1961 C   0  0  0  0  0  0  0  0  0  0  0  0
   -5.8776   14.5022  -12.9731 O   0  0  0  0  0  0  0  0  0  0  0  0
   -5.9585   10.4860   -7.7354 C   0  0  0  0  0  0  0  0  0  0  0  0
   -5.8494   11.7555   -7.1596 C   0  0  0  0  0  0  0  0  0  0  0  0
   -4.5968   12.3068   -6.9148 C   0  0  0  0  0  0  0  0  0  0  0  0
   -3.4468   11.5860   -7.2370 C   0  0  0  0  0  0  0  0  0  0  0  0
   -3.5513   10.3089   -7.8057 C   0  0  0  0  0  0  0  0  0  0  0  0
   -4.8090    9.7654   -8.0523 C   0  0  0  0  0  0  0  0  0  0  0  0
   -2.0901   12.1669   -6.9801 C   0  0  0  0  0  0  0  0  0  0  0  0
   -1.7479   13.4121   -6.4872 C   0  0  0  0  0  0  0  0  0  0  0  0
   -0.3990   13.4663   -6.4328 N   0  0  3  0  0  0  0  0  0  0  0  0
    0.1869   12.3691   -6.8386 N   0  0  0  0  0  0  0  0  0  0  0  0
   -0.8034   11.5628   -7.1902 C   0  0  0  0  0  0  0  0  0  0  0  0
    0.4389   14.5894   -5.9640 C   0  0  0  0  0  0  0  0  0  0  0  0
    1.5042   14.2139   -4.8744 C   0  0  0  0  0  0  0  0  0  0  0  0
    2.6302   13.6295   -5.4977 O   0  0  0  0  0  0  0  0  0  0  0  0
    0.9501   13.1612   -3.9053 C   0  0  0  0  0  0  0  0  0  0  0  0
    2.0179   15.4484   -4.1037 C   0  0  0  0  0  0  0  0  0  0  0  0
   -6.0641   12.2854   -9.8782 H   0  0  0  0  0  0  0  0  0  0  0  0
   -8.1913   10.1279  -13.8857 H   0  0  0  0  0  0  0  0  0  0  0  0
   -6.8965   12.2561  -14.0981 H   0  0  0  0  0  0  0  0  0  0  0  0
   -8.0357    9.5970   -7.2556 H   0  0  0  0  0  0  0  0  0  0  0  0
   -4.1971   12.8720  -10.8613 H   0  0  0  0  0  0  0  0  0  0  0  0
   -2.6221   14.5745  -10.8136 H   0  0  0  0  0  0  0  0  0  0  0  0
   -3.0817   14.9010  -12.5191 H   0  0  0  0  0  0  0  0  0  0  0  0
   -3.9787   15.6934  -11.1797 H   0  0  0  0  0  0  0  0  0  0  0  0
   -6.7407   12.3094   -6.9043 H   0  0  0  0  0  0  0  0  0  0  0  0
   -4.5143   13.2904   -6.4764 H   0  0  0  0  0  0  0  0  0  0  0  0
   -2.6607    9.7496   -8.0512 H   0  0  0  0  0  0  0  0  0  0  0  0
   -4.8939    8.7820   -8.4907 H   0  0  0  0  0  0  0  0  0  0  0  0
   -2.4321   14.1965   -6.1989 H   0  0  0  0  0  0  0  0  0  0  0  0
    0.7820   12.5566   -7.6200 H   0  0  0  0  0  0  0  0  0  0  0  0
   -0.7413   10.6421   -6.5914 H   0  0  0  0  0  0  0  0  0  0  0  0
   -0.6976   11.3145   -8.2566 H   0  0  0  0  0  0  0  0  0  0  0  0
    0.9713   15.0036   -6.8329 H   0  0  0  0  0  0  0  0  0  0  0  0
   -0.2256   15.3572   -5.5409 H   0  0  0  0  0  0  0  0  0  0  0  0
    3.2752   13.4021   -4.8384 H   0  0  0  0  0  0  0  0  0  0  0  0
    1.7145   12.9160   -3.1533 H   0  0  0  0  0  0  0  0  0  0  0  0
    0.0563   13.5598   -3.4030 H   0  0  0  0  0  0  0  0  0  0  0  0
    0.6818   12.2530   -4.4649 H   0  0  0  0  0  0  0  0  0  0  0  0
    2.7591   15.1317   -3.3552 H   0  0  0  0  0  0  0  0  0  0  0  0
    2.4859   16.1517   -4.8082 H   0  0  0  0  0  0  0  0  0  0  0  0
    1.1747   15.9421   -3.5985 H   0  0  0  0  0  0  0  0  0  0  0  0
  1  2  2  0  0  0  0
  1  4  1  0  0  0  0
  1 13  1  0  0  0  0
  2  6  1  0  0  0  0
  3  4  2  0  0  0  0
  3  5  1  0  0  0  0
  5  6  2  0  0  0  0
  5  9  1  0  0  0  0
  6  7  1  0  0  0  0
  7  8  1  0  0  0  0
  7 10  2  3  0  0  0
  8  9  2  0  0  0  0
 10 15  1  0  0  0  0
 11 12  1  0  0  0  0
 11 13  1  0  0  0  0
 13 14  2  0  0  0  0
 15 16  2  0  0  0  0
 15 20  1  0  0  0  0
 16 17  1  0  0  0  0
 17 18  2  0  0  0  0
 18 19  1  0  0  0  0
 18 21  1  0  0  0  0
 19 20  2  0  0  0  0
 21 22  2  0  0  0  0
 21 25  1  0  0  0  0
 22 23  1  0  0  0  0
 23 24  1  0  0  0  0
 23 26  1  0  0  0  0
 24 25  1  0  0  0  0
 26 27  1  0  0  0  0
 27 28  1  0  0  0  0
 27 29  1  0  0  0  0
 27 30  1  0  0  0  0
  2 31  1  0  0  0  0
  3 32  1  0  0  0  0
  4 33  1  0  0  0  0
 10 34  1  0  0  0  0
 11 35  1  0  0  0  0
 12 36  1  0  0  0  0
 12 37  1  0  0  0  0
 12 38  1  0  0  0  0
 16 39  1  0  0  0  0
 17 40  1  0  0  0  0
 19 41  1  0  0  0  0
 20 42  1  0  0  0  0
 22 43  1  0  0  0  0
 24 44  1  0  0  0  0
 25 45  1  0  0  0  0
 25 46  1  0  0  0  0
 26 47  1  0  0  0  0
 26 48  1  0  0  0  0
 28 49  1  0  0  0  0
 29 50  1  0  0  0  0
 29 51  1  0  0  0  0
 29 52  1  0  0  0  0
 30 53  1  0  0  0  0
 30 54  1  0  0  0  0
 30 55  1  0  0  0  0
M  END
> <Name>
20

> <IC50[uM]>
0.016

$$$$
20
  -OEChem-05192314333D
 Structure written by MMmdl.
 55 58  0     1  0  0  0  0  0999 V2000
   -6.3740   12.3524  -12.0161 C   0  0  0  0  0  0  0  0  0  0  0  0
   -6.5100   11.8065  -10.7374 C   0  0  0  0  0  0  0  0  0  0  0  0
   -7.7222   10.5841  -13.0265 C   0  0  0  0  0  0  0  0  0  0  0  0
   -6.9887   11.7756  -13.1353 C   0  0  0  0  0  0  0  0  0  0  0  0
   -7.8163   10.0177  -11.7563 C   0  0  0  0  0  0  0  0  0  0  0  0
   -7.2425   10.6185  -10.6022 C   0  0  0  0  0  0  0  0  0  0  0  0
   -7.6172    9.7487   -9.5090 C   0  0  0  0  0  0  0  0  0  0  0  0
   -8.2846    8.7289   -9.9848 N   0  0  0  0  0  0  0  0  0  0  0  0
   -8.4176    8.8659  -11.2967 N   0  0  0  0  0  0  0  0  0  0  0  0
   -7.3368    9.8884   -8.0257 C   0  0  0  0  0  0  0  0  0  0  0  0
   -4.4023   13.6480  -11.4578 N   0  0  0  0  0  0  0  0  0  0  0  0
   -3.4623   14.7747  -11.4948 C   0  0  0  0  0  0  0  0  0  0  0  0
   -5.5331   13.6158  -12.1961 C   0  0  0  0  0  0  0  0  0  0  0  0
   -5.8776   14.5022  -12.9731 O   0  0  0  0  0  0  0  0  0  0  0  0
   -5.9585   10.4860   -7.7354 C   0  0  0  0  0  0  0  0  0  0  0  0
   -5.8494   11.7555   -7.1596 C   0  0  0  0  0  0  0  0  0  0  0  0
   -4.5968   12.3068   -6.9148 C   0  0  0  0  0  0  0  0  0  0  0  0
   -3.4468   11.5860   -7.2370 C   0  0  0  0  0  0  0  0  0  0  0  0
   -3.5513   10.3089   -7.8057 C   0  0  0  0  0  0  0  0  0  0  0  0
   -4.8090    9.7654   -8.0523 C   0  0  0  0  0  0  0  0  0  0  0  0
   -2.0901   12.1669   -6.9801 C   0  0  0  0  0  0  0  0  0  0  0  0
   -1.7479   13.4121   -6.4872 C   0  0  0  0  0  0  0  0  0  0  0  0
   -0.3990   13.4663   -6.4328 N   0  0  3  0  0  0  0  0  0  0  0  0
    0.1869   12.3691   -6.8386 N   0  0  0  0  0  0  0  0  0  0  0  0
   -0.8034   11.5628   -7.1902 C   0  0  0  0  0  0  0  0  0  0  0  0
    0.4389   14.5894   -5.9640 C   0  0  0  0  0  0  0  0  0  0  0  0
    1.5042   14.2139   -4.8744 C   0  0  0  0  0  0  0  0  0  0  0  0
    2.6302   13.6295   -5.4977 O   0  0  0  0  0  0  0  0  0  0  0  0
    0.9501   13.1612   -3.9053 C   0  0  0  0  0  0  0  0  0  0  0  0
    2.0179   15.4484   -4.1037 C   0  0  0  0  0  0  0  0  0  0  0  0
   -6.0641   12.2854   -9.8782 H   0  0  0  0  0  0  0  0  0  0  0  0
   -8.1913   10.1279  -13.8857 H   0  0  0  0  0  0  0  0  0  0  0  0
   -6.8965   12.2561  -14.0981 H   0  0  0  0  0  0  0  0  0  0  0  0
   -8.0357    9.5970   -7.2556 H   0  0  0  0  0  0  0  0  0  0  0  0
   -4.1971   12.8720  -10.8613 H   0  0  0  0  0  0  0  0  0  0  0  0
   -2.6221   14.5745  -10.8136 H   0  0  0  0  0  0  0  0  0  0  0  0
   -3.0817   14.9010  -12.5191 H   0  0  0  0  0  0  0  0  0  0  0  0
   -3.9787   15.6934  -11.1797 H   0  0  0  0  0  0  0  0  0  0  0  0
   -6.7407   12.3094   -6.9043 H   0  0  0  0  0  0  0  0  0  0  0  0
   -4.5143   13.2904   -6.4764 H   0  0  0  0  0  0  0  0  0  0  0  0
   -2.6607    9.7496   -8.0512 H   0  0  0  0  0  0  0  0  0  0  0  0
   -4.8939    8.7820   -8.4907 H   0  0  0  0  0  0  0  0  0  0  0  0
   -2.1296   14.1989   -7.1545 H   0  0  0  0  0  0  0  0  0  0  0  0
   -2.1709   13.5478   -5.4809 H   0  0  0  0  0  0  0  0  0  0  0  0
    0.7820   12.5566   -7.6200 H   0  0  0  0  0  0  0  0  0  0  0  0
   -0.6606   10.5688   -7.5878 H   0  0  0  0  0  0  0  0  0  0  0  0
    0.9713   15.0036   -6.8329 H   0  0  0  0  0  0  0  0  0  0  0  0
   -0.2256   15.3572   -5.5409 H   0  0  0  0  0  0  0  0  0  0  0  0
    3.2752   13.4021   -4.8384 H   0  0  0  0  0  0  0  0  0  0  0  0
    1.7145   12.9160   -3.1533 H   0  0  0  0  0  0  0  0  0  0  0  0
    0.0563   13.5598   -3.4030 H   0  0  0  0  0  0  0  0  0  0  0  0
    0.6818   12.2530   -4.4649 H   0  0  0  0  0  0  0  0  0  0  0  0
    2.7591   15.1317   -3.3552 H   0  0  0  0  0  0  0  0  0  0  0  0
    2.4859   16.1517   -4.8082 H   0  0  0  0  0  0  0  0  0  0  0  0
    1.1747   15.9421   -3.5985 H   0  0  0  0  0  0  0  0  0  0  0  0
  1  2  2  0  0  0  0
  1  4  1  0  0  0  0
  1 13  1  0  0  0  0
  2  6  1  0  0  0  0
  3  4  2  0  0  0  0
  3  5  1  0  0  0  0
  5  6  2  0  0  0  0
  5  9  1  0  0  0  0
  6  7  1  0  0  0  0
  7  8  1  0  0  0  0
  7 10  2  3  0  0  0
  8  9  2  0  0  0  0
 10 15  1  0  0  0  0
 11 12  1  0  0  0  0
 11 13  1  0  0  0  0
 13 14  2  0  0  0  0
 15 16  2  0  0  0  0
 15 20  1  0  0  0  0
 16 17  1  0  0  0  0
 17 18  2  0  0  0  0
 18 19  1  0  0  0  0
 18 21  1  0  0  0  0
 19 20  2  0  0  0  0
 21 22  1  0  0  0  0
 21 25  2  0  0  0  0
 22 23  1  0  0  0  0
 23 24  1  0  0  0  0
 23 26  1  0  0  0  0
 24 25  1  0  0  0  0
 26 27  1  0  0  0  0
 27 28  1  0  0  0  0
 27 29  1  0  0  0  0
 27 30  1  0  0  0  0
  2 31  1  0  0  0  0
  3 32  1  0  0  0  0
  4 33  1  0  0  0  0
 10 34  1  0  0  0  0
 11 35  1  0  0  0  0
 12 36  1  0  0  0  0
 12 37  1  0  0  0  0
 12 38  1  0  0  0  0
 16 39  1  0  0  0  0
 17 40  1  0  0  0  0
 19 41  1  0  0  0  0
 20 42  1  0  0  0  0
 22 43  1  0  0  0  0
 22 44  1  0  0  0  0
 24 45  1  0  0  0  0
 25 46  1  0  0  0  0
 26 47  1  0  0  0  0
 26 48  1  0  0  0  0
 28 49  1  0  0  0  0
 29 50  1  0  0  0  0
 29 51  1  0  0  0  0
 29 52  1  0  0  0  0
 30 53  1  0  0  0  0
 30 54  1  0  0  0  0
 30 55  1  0  0  0  0
M  END
> <Name>
20

> <IC50[uM]>
0.016

$$$$
20
  -OEChem-05192314333D
 Structure written by MMmdl.
 55 58  0     1  0  0  0  0  0999 V2000
   -6.3740   12.3524  -12.0161 C   0  0  0  0  0  0  0  0  0  0  0  0
   -6.5100   11.8065  -10.7374 C   0  0  0  0  0  0  0  0  0  0  0  0
   -7.7222   10.5841  -13.0265 C   0  0  0  0  0  0  0  0  0  0  0  0
   -6.9887   11.7756  -13.1353 C   0  0  0  0  0  0  0  0  0  0  0  0
   -7.8163   10.0177  -11.7563 C   0  0  0  0  0  0  0  0  0  0  0  0
   -7.2425   10.6185  -10.6022 C   0  0  0  0  0  0  0  0  0  0  0  0
   -7.6172    9.7487   -9.5090 C   0  0  0  0  0  0  0  0  0  0  0  0
   -8.2846    8.7289   -9.9848 N   0  0  0  0  0  0  0  0  0  0  0  0
   -8.4176    8.8659  -11.2967 N   0  0  0  0  0  0  0  0  0  0  0  0
   -7.3368    9.8884   -8.0257 C   0  0  0  0  0  0  0  0  0  0  0  0
   -4.4023   13.6480  -11.4578 N   0  0  0  0  0  0  0  0  0  0  0  0
   -3.4623   14.7747  -11.4948 C   0  0  0  0  0  0  0  0  0  0  0  0
   -5.5331   13.6158  -12.1961 C   0  0  0  0  0  0  0  0  0  0  0  0
   -5.8776   14.5022  -12.9731 O   0  0  0  0  0  0  0  0  0  0  0  0
   -5.9585   10.4860   -7.7354 C   0  0  0  0  0  0  0  0  0  0  0  0
   -5.8494   11.7555   -7.1596 C   0  0  0  0  0  0  0  0  0  0  0  0
   -4.5968   12.3068   -6.9148 C   0  0  0  0  0  0  0  0  0  0  0  0
   -3.4468   11.5860   -7.2370 C   0  0  0  0  0  0  0  0  0  0  0  0
   -3.5513   10.3089   -7.8057 C   0  0  0  0  0  0  0  0  0  0  0  0
   -4.8090    9.7654   -8.0523 C   0  0  0  0  0  0  0  0  0  0  0  0
   -2.0901   12.1669   -6.9801 C   0  0  0  0  0  0  0  0  0  0  0  0
   -1.7479   13.4121   -6.4872 C   0  0  0  0  0  0  0  0  0  0  0  0
   -0.3990   13.4663   -6.4328 N   0  0  3  0  0  0  0  0  0  0  0  0
    0.1869   12.3691   -6.8386 N   0  0  0  0  0  0  0  0  0  0  0  0
   -0.8034   11.5628   -7.1902 C   0  0  0  0  0  0  0  0  0  0  0  0
    0.4389   14.5894   -5.9640 C   0  0  0  0  0  0  0  0  0  0  0  0
    1.5042   14.2139   -4.8744 C   0  0  0  0  0  0  0  0  0  0  0  0
    2.6302   13.6295   -5.4977 O   0  0  0  0  0  0  0  0  0  0  0  0
    0.9501   13.1612   -3.9053 C   0  0  0  0  0  0  0  0  0  0  0  0
    2.0179   15.4484   -4.1037 C   0  0  0  0  0  0  0  0  0  0  0  0
   -6.0641   12.2854   -9.8782 H   0  0  0  0  0  0  0  0  0  0  0  0
   -8.1913   10.1279  -13.8857 H   0  0  0  0  0  0  0  0  0  0  0  0
   -6.8965   12.2561  -14.0981 H   0  0  0  0  0  0  0  0  0  0  0  0
   -8.0357    9.5970   -7.2556 H   0  0  0  0  0  0  0  0  0  0  0  0
   -2.6221   14.5745  -10.8136 H   0  0  0  0  0  0  0  0  0  0  0  0
   -3.0817   14.9010  -12.5191 H   0  0  0  0  0  0  0  0  0  0  0  0
   -3.9787   15.6934  -11.1797 H   0  0  0  0  0  0  0  0  0  0  0  0
   -5.2393   15.2056  -12.9549 H   0  0  0  0  0  0  0  0  0  0  0  0
   -6.7407   12.3094   -6.9043 H   0  0  0  0  0  0  0  0  0  0  0  0
   -4.5143   13.2904   -6.4764 H   0  0  0  0  0  0  0  0  0  0  0  0
   -2.6607    9.7496   -8.0512 H   0  0  0  0  0  0  0  0  0  0  0  0
   -4.8939    8.7820   -8.4907 H   0  0  0  0  0  0  0  0  0  0  0  0
   -2.4321   14.1965   -6.1989 H   0  0  0  0  0  0  0  0  0  0  0  0
    0.7820   12.5566   -7.6200 H   0  0  0  0  0  0  0  0  0  0  0  0
   -0.7413   10.6421   -6.5914 H   0  0  0  0  0  0  0  0  0  0  0  0
   -0.6976   11.3145   -8.2566 H   0  0  0  0  0  0  0  0  0  0  0  0
    0.9713   15.0036   -6.8329 H   0  0  0  0  0  0  0  0  0  0  0  0
   -0.2256   15.3572   -5.5409 H   0  0  0  0  0  0  0  0  0  0  0  0
    3.2752   13.4021   -4.8384 H   0  0  0  0  0  0  0  0  0  0  0  0
    1.7145   12.9160   -3.1533 H   0  0  0  0  0  0  0  0  0  0  0  0
    0.0563   13.5598   -3.4030 H   0  0  0  0  0  0  0  0  0  0  0  0
    0.6818   12.2530   -4.4649 H   0  0  0  0  0  0  0  0  0  0  0  0
    2.7591   15.1317   -3.3552 H   0  0  0  0  0  0  0  0  0  0  0  0
    2.4859   16.1517   -4.8082 H   0  0  0  0  0  0  0  0  0  0  0  0
    1.1747   15.9421   -3.5985 H   0  0  0  0  0  0  0  0  0  0  0  0
  1  2  2  0  0  0  0
  1  4  1  0  0  0  0
  1 13  1  0  0  0  0
  2  6  1  0  0  0  0
  3  4  2  0  0  0  0
  3  5  1  0  0  0  0
  5  6  2  0  0  0  0
  5  9  1  0  0  0  0
  6  7  1  0  0  0  0
  7  8  1  0  0  0  0
  7 10  2  3  0  0  0
  8  9  2  0  0  0  0
 10 15  1  0  0  0  0
 11 12  1  0  0  0  0
 11 13  2  0  0  0  0
 13 14  1  0  0  0  0
 15 16  2  0  0  0  0
 15 20  1  0  0  0  0
 16 17  1  0  0  0  0
 17 18  2  0  0  0  0
 18 19  1  0  0  0  0
 18 21  1  0  0  0  0
 19 20  2  0  0  0  0
 21 22  2  0  0  0  0
 21 25  1  0  0  0  0
 22 23  1  0  0  0  0
 23 24  1  0  0  0  0
 23 26  1  0  0  0  0
 24 25  1  0  0  0  0
 26 27  1  0  0  0  0
 27 28  1  0  0  0  0
 27 29  1  0  0  0  0
 27 30  1  0  0  0  0
  2 31  1  0  0  0  0
  3 32  1  0  0  0  0
  4 33  1  0  0  0  0
 10 34  1  0  0  0  0
 12 35  1  0  0  0  0
 12 36  1  0  0  0  0
 12 37  1  0  0  0  0
 14 38  1  0  0  0  0
 16 39  1  0  0  0  0
 17 40  1  0  0  0  0
 19 41  1  0  0  0  0
 20 42  1  0  0  0  0
 22 43  1  0  0  0  0
 24 44  1  0  0  0  0
 25 45  1  0  0  0  0
 25 46  1  0  0  0  0
 26 47  1  0  0  0  0
 26 48  1  0  0  0  0
 28 49  1  0  0  0  0
 29 50  1  0  0  0  0
 29 51  1  0  0  0  0
 29 52  1  0  0  0  0
 30 53  1  0  0  0  0
 30 54  1  0  0  0  0
 30 55  1  0  0  0  0
M  END
> <Name>
20

> <IC50[uM]>
0.016

$$$$
20
  -OEChem-05192314333D
 Structure written by MMmdl.
 55 58  0     1  0  0  0  0  0999 V2000
   -6.3740   12.3524  -12.0161 C   0  0  0  0  0  0  0  0  0  0  0  0
   -6.5100   11.8065  -10.7374 C   0  0  0  0  0  0  0  0  0  0  0  0
   -7.7222   10.5841  -13.0265 C   0  0  0  0  0  0  0  0  0  0  0  0
   -6.9887   11.7756  -13.1353 C   0  0  0  0  0  0  0  0  0  0  0  0
   -7.8163   10.0177  -11.7563 C   0  0  0  0  0  0  0  0  0  0  0  0
   -7.2425   10.6185  -10.6022 C   0  0  0  0  0  0  0  0  0  0  0  0
   -7.6172    9.7487   -9.5090 C   0  0  0  0  0  0  0  0  0  0  0  0
   -8.2846    8.7289   -9.9848 N   0  0  0  0  0  0  0  0  0  0  0  0
   -8.4176    8.8659  -11.2967 N   0  0  0  0  0  0  0  0  0  0  0  0
   -7.3368    9.8884   -8.0257 C   0  0  0  0  0  0  0  0  0  0  0  0
   -4.4023   13.6480  -11.4578 N   0  0  0  0  0  0  0  0  0  0  0  0
   -3.4623   14.7747  -11.4948 C   0  0  0  0  0  0  0  0  0  0  0  0
   -5.5331   13.6158  -12.1961 C   0  0  0  0  0  0  0  0  0  0  0  0
   -5.8776   14.5022  -12.9731 O   0  0  0  0  0  0  0  0  0  0  0  0
   -5.9585   10.4860   -7.7354 C   0  0  0  0  0  0  0  0  0  0  0  0
   -5.8494   11.7555   -7.1596 C   0  0  0  0  0  0  0  0  0  0  0  0
   -4.5968   12.3068   -6.9148 C   0  0  0  0  0  0  0  0  0  0  0  0
   -3.4468   11.5860   -7.2370 C   0  0  0  0  0  0  0  0  0  0  0  0
   -3.5513   10.3089   -7.8057 C   0  0  0  0  0  0  0  0  0  0  0  0
   -4.8090    9.7654   -8.0523 C   0  0  0  0  0  0  0  0  0  0  0  0
   -2.0901   12.1669   -6.9801 C   0  0  0  0  0  0  0  0  0  0  0  0
   -1.7479   13.4121   -6.4872 C   0  0  0  0  0  0  0  0  0  0  0  0
   -0.3990   13.4663   -6.4328 N   0  0  3  0  0  0  0  0  0  0  0  0
    0.1869   12.3691   -6.8386 N   0  0  0  0  0  0  0  0  0  0  0  0
   -0.8034   11.5628   -7.1902 C   0  0  0  0  0  0  0  0  0  0  0  0
    0.4389   14.5894   -5.9640 C   0  0  0  0  0  0  0  0  0  0  0  0
    1.5042   14.2139   -4.8744 C   0  0  0  0  0  0  0  0  0  0  0  0
    2.6302   13.6295   -5.4977 O   0  0  0  0  0  0  0  0  0  0  0  0
    0.9501   13.1612   -3.9053 C   0  0  0  0  0  0  0  0  0  0  0  0
    2.0179   15.4484   -4.1037 C   0  0  0  0  0  0  0  0  0  0  0  0
   -6.0641   12.2854   -9.8782 H   0  0  0  0  0  0  0  0  0  0  0  0
   -8.1913   10.1279  -13.8857 H   0  0  0  0  0  0  0  0  0  0  0  0
   -6.8965   12.2561  -14.0981 H   0  0  0  0  0  0  0  0  0  0  0  0
   -8.0357    9.5970   -7.2556 H   0  0  0  0  0  0  0  0  0  0  0  0
   -2.6221   14.5745  -10.8136 H   0  0  0  0  0  0  0  0  0  0  0  0
   -3.0817   14.9010  -12.5191 H   0  0  0  0  0  0  0  0  0  0  0  0
   -3.9787   15.6934  -11.1797 H   0  0  0  0  0  0  0  0  0  0  0  0
   -5.2393   15.2056  -12.9549 H   0  0  0  0  0  0  0  0  0  0  0  0
   -6.7407   12.3094   -6.9043 H   0  0  0  0  0  0  0  0  0  0  0  0
   -4.5143   13.2904   -6.4764 H   0  0  0  0  0  0  0  0  0  0  0  0
   -2.6607    9.7496   -8.0512 H   0  0  0  0  0  0  0  0  0  0  0  0
   -4.8939    8.7820   -8.4907 H   0  0  0  0  0  0  0  0  0  0  0  0
   -2.1296   14.1989   -7.1545 H   0  0  0  0  0  0  0  0  0  0  0  0
   -2.1709   13.5478   -5.4809 H   0  0  0  0  0  0  0  0  0  0  0  0
    0.7820   12.5566   -7.6200 H   0  0  0  0  0  0  0  0  0  0  0  0
   -0.6606   10.5688   -7.5878 H   0  0  0  0  0  0  0  0  0  0  0  0
    0.9713   15.0036   -6.8329 H   0  0  0  0  0  0  0  0  0  0  0  0
   -0.2256   15.3572   -5.5409 H   0  0  0  0  0  0  0  0  0  0  0  0
    3.2752   13.4021   -4.8384 H   0  0  0  0  0  0  0  0  0  0  0  0
    1.7145   12.9160   -3.1533 H   0  0  0  0  0  0  0  0  0  0  0  0
    0.0563   13.5598   -3.4030 H   0  0  0  0  0  0  0  0  0  0  0  0
    0.6818   12.2530   -4.4649 H   0  0  0  0  0  0  0  0  0  0  0  0
    2.7591   15.1317   -3.3552 H   0  0  0  0  0  0  0  0  0  0  0  0
    2.4859   16.1517   -4.8082 H   0  0  0  0  0  0  0  0  0  0  0  0
    1.1747   15.9421   -3.5985 H   0  0  0  0  0  0  0  0  0  0  0  0
  1  2  2  0  0  0  0
  1  4  1  0  0  0  0
  1 13  1  0  0  0  0
  2  6  1  0  0  0  0
  3  4  2  0  0  0  0
  3  5  1  0  0  0  0
  5  6  2  0  0  0  0
  5  9  1  0  0  0  0
  6  7  1  0  0  0  0
  7  8  1  0  0  0  0
  7 10  2  3  0  0  0
  8  9  2  0  0  0  0
 10 15  1  0  0  0  0
 11 12  1  0  0  0  0
 11 13  2  0  0  0  0
 13 14  1  0  0  0  0
 15 16  2  0  0  0  0
 15 20  1  0  0  0  0
 16 17  1  0  0  0  0
 17 18  2  0  0  0  0
 18 19  1  0  0  0  0
 18 21  1  0  0  0  0
 19 20  2  0  0  0  0
 21 22  1  0  0  0  0
 21 25  2  0  0  0  0
 22 23  1  0  0  0  0
 23 24  1  0  0  0  0
 23 26  1  0  0  0  0
 24 25  1  0  0  0  0
 26 27  1  0  0  0  0
 27 28  1  0  0  0  0
 27 29  1  0  0  0  0
 27 30  1  0  0  0  0
  2 31  1  0  0  0  0
  3 32  1  0  0  0  0
  4 33  1  0  0  0  0
 10 34  1  0  0  0  0
 12 35  1  0  0  0  0
 12 36  1  0  0  0  0
 12 37  1  0  0  0  0
 14 38  1  0  0  0  0
 16 39  1  0  0  0  0
 17 40  1  0  0  0  0
 19 41  1  0  0  0  0
 20 42  1  0  0  0  0
 22 43  1  0  0  0  0
 22 44  1  0  0  0  0
 24 45  1  0  0  0  0
 25 46  1  0  0  0  0
 26 47  1  0  0  0  0
 26 48  1  0  0  0  0
 28 49  1  0  0  0  0
 29 50  1  0  0  0  0
 29 51  1  0  0  0  0
 29 52  1  0  0  0  0
 30 53  1  0  0  0  0
 30 54  1  0  0  0  0
 30 55  1  0  0  0  0
M  END
> <Name>
20

> <IC50[uM]>
0.016

$$$$
20
  -OEChem-05192314333D
 Structure written by MMmdl.
 55 58  0     1  0  0  0  0  0999 V2000
   -6.3740   12.3524  -12.0161 C   0  0  0  0  0  0  0  0  0  0  0  0
   -6.5100   11.8065  -10.7374 C   0  0  0  0  0  0  0  0  0  0  0  0
   -7.7222   10.5841  -13.0265 C   0  0  0  0  0  0  0  0  0  0  0  0
   -6.9887   11.7756  -13.1353 C   0  0  0  0  0  0  0  0  0  0  0  0
   -7.8163   10.0177  -11.7563 C   0  0  0  0  0  0  0  0  0  0  0  0
   -7.2425   10.6185  -10.6022 C   0  0  0  0  0  0  0  0  0  0  0  0
   -7.6172    9.7487   -9.5090 C   0  0  3  0  0  0  0  0  0  0  0  0
   -8.2846    8.7289   -9.9848 N   0  0  0  0  0  0  0  0  0  0  0  0
   -8.4176    8.8659  -11.2967 N   0  0  0  0  0  0  0  0  0  0  0  0
   -7.3368    9.8884   -8.0257 C   0  0  0  0  0  0  0  0  0  0  0  0
   -4.4023   13.6480  -11.4578 N   0  0  0  0  0  0  0  0  0  0  0  0
   -3.4623   14.7747  -11.4948 C   0  0  0  0  0  0  0  0  0  0  0  0
   -5.5331   13.6158  -12.1961 C   0  0  0  0  0  0  0  0  0  0  0  0
   -5.8776   14.5022  -12.9731 O   0  0  0  0  0  0  0  0  0  0  0  0
   -5.9585   10.4860   -7.7354 C   0  0  0  0  0  0  0  0  0  0  0  0
   -5.8494   11.7555   -7.1596 C   0  0  0  0  0  0  0  0  0  0  0  0
   -4.5968   12.3068   -6.9148 C   0  0  0  0  0  0  0  0  0  0  0  0
   -3.4468   11.5860   -7.2370 C   0  0  0  0  0  0  0  0  0  0  0  0
   -3.5513   10.3089   -7.8057 C   0  0  0  0  0  0  0  0  0  0  0  0
   -4.8090    9.7654   -8.0523 C   0  0  0  0  0  0  0  0  0  0  0  0
   -2.0901   12.1669   -6.9801 C   0  0  0  0  0  0  0  0  0  0  0  0
   -1.7479   13.4121   -6.4872 C   0  0  0  0  0  0  0  0  0  0  0  0
   -0.3990   13.4663   -6.4328 N   0  0  3  0  0  0  0  0  0  0  0  0
    0.1869   12.3691   -6.8386 N   0  0  0  0  0  0  0  0  0  0  0  0
   -0.8034   11.5628   -7.1902 C   0  0  0  0  0  0  0  0  0  0  0  0
    0.4389   14.5894   -5.9640 C   0  0  0  0  0  0  0  0  0  0  0  0
    1.5042   14.2139   -4.8744 C   0  0  0  0  0  0  0  0  0  0  0  0
    2.6302   13.6295   -5.4977 O   0  0  0  0  0  0  0  0  0  0  0  0
    0.9501   13.1612   -3.9053 C   0  0  0  0  0  0  0  0  0  0  0  0
    2.0179   15.4484   -4.1037 C   0  0  0  0  0  0  0  0  0  0  0  0
   -6.0641   12.2854   -9.8782 H   0  0  0  0  0  0  0  0  0  0  0  0
   -8.1913   10.1279  -13.8857 H   0  0  0  0  0  0  0  0  0  0  0  0
   -6.8965   12.2561  -14.0981 H   0  0  0  0  0  0  0  0  0  0  0  0
   -8.5567   10.3073   -9.3851 H   0  0  0  0  0  0  0  0  0  0  0  0
   -8.0357    9.5970   -7.2556 H   0  0  0  0  0  0  0  0  0  0  0  0
   -4.1971   12.8720  -10.8613 H   0  0  0  0  0  0  0  0  0  0  0  0
   -2.6221   14.5745  -10.8136 H   0  0  0  0  0  0  0  0  0  0  0  0
   -3.0817   14.9010  -12.5191 H   0  0  0  0  0  0  0  0  0  0  0  0
   -3.9787   15.6934  -11.1797 H   0  0  0  0  0  0  0  0  0  0  0  0
   -6.7407   12.3094   -6.9043 H   0  0  0  0  0  0  0  0  0  0  0  0
   -4.5143   13.2904   -6.4764 H   0  0  0  0  0  0  0  0  0  0  0  0
   -2.6607    9.7496   -8.0512 H   0  0  0  0  0  0  0  0  0  0  0  0
   -4.8939    8.7820   -8.4907 H   0  0  0  0  0  0  0  0  0  0  0  0
   -2.1296   14.1989   -7.1545 H   0  0  0  0  0  0  0  0  0  0  0  0
   -2.1709   13.5478   -5.4809 H   0  0  0  0  0  0  0  0  0  0  0  0
   -0.6606   10.5688   -7.5878 H   0  0  0  0  0  0  0  0  0  0  0  0
    0.9713   15.0036   -6.8329 H   0  0  0  0  0  0  0  0  0  0  0  0
   -0.2256   15.3572   -5.5409 H   0  0  0  0  0  0  0  0  0  0  0  0
    3.2752   13.4021   -4.8384 H   0  0  0  0  0  0  0  0  0  0  0  0
    1.7145   12.9160   -3.1533 H   0  0  0  0  0  0  0  0  0  0  0  0
    0.0563   13.5598   -3.4030 H   0  0  0  0  0  0  0  0  0  0  0  0
    0.6818   12.2530   -4.4649 H   0  0  0  0  0  0  0  0  0  0  0  0
    2.7591   15.1317   -3.3552 H   0  0  0  0  0  0  0  0  0  0  0  0
    2.4859   16.1517   -4.8082 H   0  0  0  0  0  0  0  0  0  0  0  0
    1.1747   15.9421   -3.5985 H   0  0  0  0  0  0  0  0  0  0  0  0
  1  2  2  0  0  0  0
  1  4  1  0  0  0  0
  1 13  1  0  0  0  0
  2  6  1  0  0  0  0
  3  4  2  0  0  0  0
  3  5  1  0  0  0  0
  5  6  2  0  0  0  0
  5  9  1  0  0  0  0
  6  7  1  0  0  0  0
  7  8  1  0  0  0  0
  7 10  1  0  0  0  0
  8  9  2  0  0  0  0
 10 15  2  0  0  0  0
 11 12  1  0  0  0  0
 11 13  1  0  0  0  0
 13 14  2  0  0  0  0
 15 16  1  0  0  0  0
 15 20  1  0  0  0  0
 16 17  2  0  0  0  0
 17 18  1  0  0  0  0
 18 19  1  0  0  0  0
 18 21  2  0  0  0  0
 19 20  2  0  0  0  0
 21 22  1  0  0  0  0
 21 25  1  0  0  0  0
 22 23  1  0  0  0  0
 23 24  1  0  0  0  0
 23 26  1  0  0  0  0
 24 25  2  0  0  0  0
 26 27  1  0  0  0  0
 27 28  1  0  0  0  0
 27 29  1  0  0  0  0
 27 30  1  0  0  0  0
  2 31  1  0  0  0  0
  3 32  1  0  0  0  0
  4 33  1  0  0  0  0
  7 34  1  0  0  0  0
 10 35  1  0  0  0  0
 11 36  1  0  0  0  0
 12 37  1  0  0  0  0
 12 38  1  0  0  0  0
 12 39  1  0  0  0  0
 16 40  1  0  0  0  0
 17 41  1  0  0  0  0
 19 42  1  0  0  0  0
 20 43  1  0  0  0  0
 22 44  1  0  0  0  0
 22 45  1  0  0  0  0
 25 46  1  0  0  0  0
 26 47  1  0  0  0  0
 26 48  1  0  0  0  0
 28 49  1  0  0  0  0
 29 50  1  0  0  0  0
 29 51  1  0  0  0  0
 29 52  1  0  0  0  0
 30 53  1  0  0  0  0
 30 54  1  0  0  0  0
 30 55  1  0  0  0  0
M  END
> <Name>
20

> <IC50[uM]>
0.016

$$$$
20
  -OEChem-05192314333D
 Structure written by MMmdl.
 55 58  0     1  0  0  0  0  0999 V2000
   -6.3740   12.3524  -12.0161 C   0  0  0  0  0  0  0  0  0  0  0  0
   -6.5100   11.8065  -10.7374 C   0  0  0  0  0  0  0  0  0  0  0  0
   -7.7222   10.5841  -13.0265 C   0  0  0  0  0  0  0  0  0  0  0  0
   -6.9887   11.7756  -13.1353 C   0  0  0  0  0  0  0  0  0  0  0  0
   -7.8163   10.0177  -11.7563 C   0  0  0  0  0  0  0  0  0  0  0  0
   -7.2425   10.6185  -10.6022 C   0  0  0  0  0  0  0  0  0  0  0  0
   -7.6172    9.7487   -9.5090 C   0  0  3  0  0  0  0  0  0  0  0  0
   -8.2846    8.7289   -9.9848 N   0  0  0  0  0  0  0  0  0  0  0  0
   -8.4176    8.8659  -11.2967 N   0  0  0  0  0  0  0  0  0  0  0  0
   -7.3368    9.8884   -8.0257 C   0  0  0  0  0  0  0  0  0  0  0  0
   -4.4023   13.6480  -11.4578 N   0  0  0  0  0  0  0  0  0  0  0  0
   -3.4623   14.7747  -11.4948 C   0  0  0  0  0  0  0  0  0  0  0  0
   -5.5331   13.6158  -12.1961 C   0  0  0  0  0  0  0  0  0  0  0  0
   -5.8776   14.5022  -12.9731 O   0  0  0  0  0  0  0  0  0  0  0  0
   -5.9585   10.4860   -7.7354 C   0  0  0  0  0  0  0  0  0  0  0  0
   -5.8494   11.7555   -7.1596 C   0  0  0  0  0  0  0  0  0  0  0  0
   -4.5968   12.3068   -6.9148 C   0  0  0  0  0  0  0  0  0  0  0  0
   -3.4468   11.5860   -7.2370 C   0  0  0  0  0  0  0  0  0  0  0  0
   -3.5513   10.3089   -7.8057 C   0  0  0  0  0  0  0  0  0  0  0  0
   -4.8090    9.7654   -8.0523 C   0  0  0  0  0  0  0  0  0  0  0  0
   -2.0901   12.1669   -6.9801 C   0  0  0  0  0  0  0  0  0  0  0  0
   -1.7479   13.4121   -6.4872 C   0  0  0  0  0  0  0  0  0  0  0  0
   -0.3990   13.4663   -6.4328 N   0  0  3  0  0  0  0  0  0  0  0  0
    0.1869   12.3691   -6.8386 N   0  0  0  0  0  0  0  0  0  0  0  0
   -0.8034   11.5628   -7.1902 C   0  0  0  0  0  0  0  0  0  0  0  0
    0.4389   14.5894   -5.9640 C   0  0  0  0  0  0  0  0  0  0  0  0
    1.5042   14.2139   -4.8744 C   0  0  0  0  0  0  0  0  0  0  0  0
    2.6302   13.6295   -5.4977 O   0  0  0  0  0  0  0  0  0  0  0  0
    0.9501   13.1612   -3.9053 C   0  0  0  0  0  0  0  0  0  0  0  0
    2.0179   15.4484   -4.1037 C   0  0  0  0  0  0  0  0  0  0  0  0
   -6.0641   12.2854   -9.8782 H   0  0  0  0  0  0  0  0  0  0  0  0
   -8.1913   10.1279  -13.8857 H   0  0  0  0  0  0  0  0  0  0  0  0
   -6.8965   12.2561  -14.0981 H   0  0  0  0  0  0  0  0  0  0  0  0
   -8.5567   10.3073   -9.3851 H   0  0  0  0  0  0  0  0  0  0  0  0
   -8.0357    9.5970   -7.2556 H   0  0  0  0  0  0  0  0  0  0  0  0
   -2.6221   14.5745  -10.8136 H   0  0  0  0  0  0  0  0  0  0  0  0
   -3.0817   14.9010  -12.5191 H   0  0  0  0  0  0  0  0  0  0  0  0
   -3.9787   15.6934  -11.1797 H   0  0  0  0  0  0  0  0  0  0  0  0
   -5.2393   15.2056  -12.9549 H   0  0  0  0  0  0  0  0  0  0  0  0
   -6.7407   12.3094   -6.9043 H   0  0  0  0  0  0  0  0  0  0  0  0
   -4.5143   13.2904   -6.4764 H   0  0  0  0  0  0  0  0  0  0  0  0
   -2.6607    9.7496   -8.0512 H   0  0  0  0  0  0  0  0  0  0  0  0
   -4.8939    8.7820   -8.4907 H   0  0  0  0  0  0  0  0  0  0  0  0
   -2.1296   14.1989   -7.1545 H   0  0  0  0  0  0  0  0  0  0  0  0
   -2.1709   13.5478   -5.4809 H   0  0  0  0  0  0  0  0  0  0  0  0
   -0.6606   10.5688   -7.5878 H   0  0  0  0  0  0  0  0  0  0  0  0
    0.9713   15.0036   -6.8329 H   0  0  0  0  0  0  0  0  0  0  0  0
   -0.2256   15.3572   -5.5409 H   0  0  0  0  0  0  0  0  0  0  0  0
    3.2752   13.4021   -4.8384 H   0  0  0  0  0  0  0  0  0  0  0  0
    1.7145   12.9160   -3.1533 H   0  0  0  0  0  0  0  0  0  0  0  0
    0.0563   13.5598   -3.4030 H   0  0  0  0  0  0  0  0  0  0  0  0
    0.6818   12.2530   -4.4649 H   0  0  0  0  0  0  0  0  0  0  0  0
    2.7591   15.1317   -3.3552 H   0  0  0  0  0  0  0  0  0  0  0  0
    2.4859   16.1517   -4.8082 H   0  0  0  0  0  0  0  0  0  0  0  0
    1.1747   15.9421   -3.5985 H   0  0  0  0  0  0  0  0  0  0  0  0
  1  2  2  0  0  0  0
  1  4  1  0  0  0  0
  1 13  1  0  0  0  0
  2  6  1  0  0  0  0
  3  4  2  0  0  0  0
  3  5  1  0  0  0  0
  5  6  2  0  0  0  0
  5  9  1  0  0  0  0
  6  7  1  0  0  0  0
  7  8  1  0  0  0  0
  7 10  1  0  0  0  0
  8  9  2  0  0  0  0
 10 15  2  0  0  0  0
 11 12  1  0  0  0  0
 11 13  2  0  0  0  0
 13 14  1  0  0  0  0
 15 16  1  0  0  0  0
 15 20  1  0  0  0  0
 16 17  2  0  0  0  0
 17 18  1  0  0  0  0
 18 19  1  0  0  0  0
 18 21  2  0  0  0  0
 19 20  2  0  0  0  0
 21 22  1  0  0  0  0
 21 25  1  0  0  0  0
 22 23  1  0  0  0  0
 23 24  1  0  0  0  0
 23 26  1  0  0  0  0
 24 25  2  0  0  0  0
 26 27  1  0  0  0  0
 27 28  1  0  0  0  0
 27 29  1  0  0  0  0
 27 30  1  0  0  0  0
  2 31  1  0  0  0  0
  3 32  1  0  0  0  0
  4 33  1  0  0  0  0
  7 34  1  0  0  0  0
 10 35  1  0  0  0  0
 12 36  1  0  0  0  0
 12 37  1  0  0  0  0
 12 38  1  0  0  0  0
 14 39  1  0  0  0  0
 16 40  1  0  0  0  0
 17 41  1  0  0  0  0
 19 42  1  0  0  0  0
 20 43  1  0  0  0  0
 22 44  1  0  0  0  0
 22 45  1  0  0  0  0
 25 46  1  0  0  0  0
 26 47  1  0  0  0  0
 26 48  1  0  0  0  0
 28 49  1  0  0  0  0
 29 50  1  0  0  0  0
 29 51  1  0  0  0  0
 29 52  1  0  0  0  0
 30 53  1  0  0  0  0
 30 54  1  0  0  0  0
 30 55  1  0  0  0  0
M  END
> <Name>
20

> <IC50[uM]>
0.016

$$$$
20
  -OEChem-05192314333D
 Structure written by MMmdl.
 55 58  0     1  0  0  0  0  0999 V2000
   -6.3740   12.3524  -12.0161 C   0  0  3  0  0  0  0  0  0  0  0  0
   -6.5100   11.8065  -10.7374 C   0  0  0  0  0  0  0  0  0  0  0  0
   -7.7222   10.5841  -13.0265 C   0  0  0  0  0  0  0  0  0  0  0  0
   -6.9887   11.7756  -13.1353 C   0  0  0  0  0  0  0  0  0  0  0  0
   -7.8163   10.0177  -11.7563 C   0  0  0  0  0  0  0  0  0  0  0  0
   -7.2425   10.6185  -10.6022 C   0  0  0  0  0  0  0  0  0  0  0  0
   -7.6172    9.7487   -9.5090 C   0  0  0  0  0  0  0  0  0  0  0  0
   -8.2846    8.7289   -9.9848 N   0  0  0  0  0  0  0  0  0  0  0  0
   -8.4176    8.8659  -11.2967 N   0  0  0  0  0  0  0  0  0  0  0  0
   -7.3368    9.8884   -8.0257 C   0  0  0  0  0  0  0  0  0  0  0  0
   -4.4023   13.6480  -11.4578 N   0  0  0  0  0  0  0  0  0  0  0  0
   -3.4623   14.7747  -11.4948 C   0  0  0  0  0  0  0  0  0  0  0  0
   -5.5331   13.6158  -12.1961 C   0  0  0  0  0  0  0  0  0  0  0  0
   -5.8776   14.5022  -12.9731 O   0  0  0  0  0  0  0  0  0  0  0  0
   -5.9585   10.4860   -7.7354 C   0  0  0  0  0  0  0  0  0  0  0  0
   -5.8494   11.7555   -7.1596 C   0  0  0  0  0  0  0  0  0  0  0  0
   -4.5968   12.3068   -6.9148 C   0  0  0  0  0  0  0  0  0  0  0  0
   -3.4468   11.5860   -7.2370 C   0  0  0  0  0  0  0  0  0  0  0  0
   -3.5513   10.3089   -7.8057 C   0  0  0  0  0  0  0  0  0  0  0  0
   -4.8090    9.7654   -8.0523 C   0  0  0  0  0  0  0  0  0  0  0  0
   -2.0901   12.1669   -6.9801 C   0  0  0  0  0  0  0  0  0  0  0  0
   -1.7479   13.4121   -6.4872 C   0  0  0  0  0  0  0  0  0  0  0  0
   -0.3990   13.4663   -6.4328 N   0  0  0  0  0  0  0  0  0  0  0  0
    0.1869   12.3691   -6.8386 N   0  0  0  0  0  0  0  0  0  0  0  0
   -0.8034   11.5628   -7.1902 C   0  0  0  0  0  0  0  0  0  0  0  0
    0.4389   14.5894   -5.9640 C   0  0  0  0  0  0  0  0  0  0  0  0
    1.5042   14.2139   -4.8744 C   0  0  0  0  0  0  0  0  0  0  0  0
    2.6302   13.6295   -5.4977 O   0  0  0  0  0  0  0  0  0  0  0  0
    0.9501   13.1612   -3.9053 C   0  0  0  0  0  0  0  0  0  0  0  0
    2.0179   15.4484   -4.1037 C   0  0  0  0  0  0  0  0  0  0  0  0
   -5.4811   11.7330  -12.1864 H   0  0  0  0  0  0  0  0  0  0  0  0
   -6.0641   12.2854   -9.8782 H   0  0  0  0  0  0  0  0  0  0  0  0
   -8.1913   10.1279  -13.8857 H   0  0  0  0  0  0  0  0  0  0  0  0
   -6.8965   12.2561  -14.0981 H   0  0  0  0  0  0  0  0  0  0  0  0
   -8.1032   10.5418   -7.5834 H   0  0  0  0  0  0  0  0  0  0  0  0
   -7.3924    8.8923   -7.5624 H   0  0  0  0  0  0  0  0  0  0  0  0
   -4.1971   12.8720  -10.8613 H   0  0  0  0  0  0  0  0  0  0  0  0
   -2.6221   14.5745  -10.8136 H   0  0  0  0  0  0  0  0  0  0  0  0
   -3.0817   14.9010  -12.5191 H   0  0  0  0  0  0  0  0  0  0  0  0
   -3.9787   15.6934  -11.1797 H   0  0  0  0  0  0  0  0  0  0  0  0
   -6.7407   12.3094   -6.9043 H   0  0  0  0  0  0  0  0  0  0  0  0
   -4.5143   13.2904   -6.4764 H   0  0  0  0  0  0  0  0  0  0  0  0
   -2.6607    9.7496   -8.0512 H   0  0  0  0  0  0  0  0  0  0  0  0
   -4.8939    8.7820   -8.4907 H   0  0  0  0  0  0  0  0  0  0  0  0
   -2.4321   14.1965   -6.1989 H   0  0  0  0  0  0  0  0  0  0  0  0
   -0.6606   10.5688   -7.5878 H   0  0  0  0  0  0  0  0  0  0  0  0
    0.9713   15.0036   -6.8329 H   0  0  0  0  0  0  0  0  0  0  0  0
   -0.2256   15.3572   -5.5409 H   0  0  0  0  0  0  0  0  0  0  0  0
    3.2752   13.4021   -4.8384 H   0  0  0  0  0  0  0  0  0  0  0  0
    1.7145   12.9160   -3.1533 H   0  0  0  0  0  0  0  0  0  0  0  0
    0.0563   13.5598   -3.4030 H   0  0  0  0  0  0  0  0  0  0  0  0
    0.6818   12.2530   -4.4649 H   0  0  0  0  0  0  0  0  0  0  0  0
    2.7591   15.1317   -3.3552 H   0  0  0  0  0  0  0  0  0  0  0  0
    2.4859   16.1517   -4.8082 H   0  0  0  0  0  0  0  0  0  0  0  0
    1.1747   15.9421   -3.5985 H   0  0  0  0  0  0  0  0  0  0  0  0
  1  2  1  0  0  0  0
  1  4  1  0  0  0  0
  1 13  1  0  0  0  0
  2  6  2  0  0  0  0
  3  4  2  0  0  0  0
  3  5  1  0  0  0  0
  5  6  1  0  0  0  0
  5  9  2  0  0  0  0
  6  7  1  0  0  0  0
  7  8  2  0  0  0  0
  7 10  1  0  0  0  0
  8  9  1  0  0  0  0
 10 15  1  0  0  0  0
 11 12  1  0  0  0  0
 11 13  1  0  0  0  0
 13 14  2  0  0  0  0
 15 16  2  0  0  0  0
 15 20  1  0  0  0  0
 16 17  1  0  0  0  0
 17 18  2  0  0  0  0
 18 19  1  0  0  0  0
 18 21  1  0  0  0  0
 19 20  2  0  0  0  0
 21 22  2  0  0  0  0
 21 25  1  0  0  0  0
 22 23  1  0  0  0  0
 23 24  1  0  0  0  0
 23 26  1  0  0  0  0
 24 25  2  0  0  0  0
 26 27  1  0  0  0  0
 27 28  1  0  0  0  0
 27 29  1  0  0  0  0
 27 30  1  0  0  0  0
  1 31  1  0  0  0  0
  2 32  1  0  0  0  0
  3 33  1  0  0  0  0
  4 34  1  0  0  0  0
 10 35  1  0  0  0  0
 10 36  1  0  0  0  0
 11 37  1  0  0  0  0
 12 38  1  0  0  0  0
 12 39  1  0  0  0  0
 12 40  1  0  0  0  0
 16 41  1  0  0  0  0
 17 42  1  0  0  0  0
 19 43  1  0  0  0  0
 20 44  1  0  0  0  0
 22 45  1  0  0  0  0
 25 46  1  0  0  0  0
 26 47  1  0  0  0  0
 26 48  1  0  0  0  0
 28 49  1  0  0  0  0
 29 50  1  0  0  0  0
 29 51  1  0  0  0  0
 29 52  1  0  0  0  0
 30 53  1  0  0  0  0
 30 54  1  0  0  0  0
 30 55  1  0  0  0  0
M  END
> <Name>
20

> <IC50[uM]>
0.016

$$$$
20
  -OEChem-05192314333D
 Structure written by MMmdl.
 55 58  0     1  0  0  0  0  0999 V2000
   -6.3740   12.3524  -12.0161 C   0  0  0  0  0  0  0  0  0  0  0  0
   -6.5100   11.8065  -10.7374 C   0  0  0  0  0  0  0  0  0  0  0  0
   -7.7222   10.5841  -13.0265 C   0  0  0  0  0  0  0  0  0  0  0  0
   -6.9887   11.7756  -13.1353 C   0  0  0  0  0  0  0  0  0  0  0  0
   -7.8163   10.0177  -11.7563 C   0  0  0  0  0  0  0  0  0  0  0  0
   -7.2425   10.6185  -10.6022 C   0  0  3  0  0  0  0  0  0  0  0  0
   -7.6172    9.7487   -9.5090 C   0  0  0  0  0  0  0  0  0  0  0  0
   -8.2846    8.7289   -9.9848 N   0  0  0  0  0  0  0  0  0  0  0  0
   -8.4176    8.8659  -11.2967 N   0  0  0  0  0  0  0  0  0  0  0  0
   -7.3368    9.8884   -8.0257 C   0  0  0  0  0  0  0  0  0  0  0  0
   -4.4023   13.6480  -11.4578 N   0  0  0  0  0  0  0  0  0  0  0  0
   -3.4623   14.7747  -11.4948 C   0  0  0  0  0  0  0  0  0  0  0  0
   -5.5331   13.6158  -12.1961 C   0  0  0  0  0  0  0  0  0  0  0  0
   -5.8776   14.5022  -12.9731 O   0  0  0  0  0  0  0  0  0  0  0  0
   -5.9585   10.4860   -7.7354 C   0  0  0  0  0  0  0  0  0  0  0  0
   -5.8494   11.7555   -7.1596 C   0  0  0  0  0  0  0  0  0  0  0  0
   -4.5968   12.3068   -6.9148 C   0  0  0  0  0  0  0  0  0  0  0  0
   -3.4468   11.5860   -7.2370 C   0  0  0  0  0  0  0  0  0  0  0  0
   -3.5513   10.3089   -7.8057 C   0  0  0  0  0  0  0  0  0  0  0  0
   -4.8090    9.7654   -8.0523 C   0  0  0  0  0  0  0  0  0  0  0  0
   -2.0901   12.1669   -6.9801 C   0  0  0  0  0  0  0  0  0  0  0  0
   -1.7479   13.4121   -6.4872 C   0  0  0  0  0  0  0  0  0  0  0  0
   -0.3990   13.4663   -6.4328 N   0  0  0  0  0  0  0  0  0  0  0  0
    0.1869   12.3691   -6.8386 N   0  0  0  0  0  0  0  0  0  0  0  0
   -0.8034   11.5628   -7.1902 C   0  0  0  0  0  0  0  0  0  0  0  0
    0.4389   14.5894   -5.9640 C   0  0  0  0  0  0  0  0  0  0  0  0
    1.5042   14.2139   -4.8744 C   0  0  0  0  0  0  0  0  0  0  0  0
    2.6302   13.6295   -5.4977 O   0  0  0  0  0  0  0  0  0  0  0  0
    0.9501   13.1612   -3.9053 C   0  0  0  0  0  0  0  0  0  0  0  0
    2.0179   15.4484   -4.1037 C   0  0  0  0  0  0  0  0  0  0  0  0
   -6.0641   12.2854   -9.8782 H   0  0  0  0  0  0  0  0  0  0  0  0
   -8.1913   10.1279  -13.8857 H   0  0  0  0  0  0  0  0  0  0  0  0
   -6.8965   12.2561  -14.0981 H   0  0  0  0  0  0  0  0  0  0  0  0
   -6.3233   10.0335  -10.7537 H   0  0  0  0  0  0  0  0  0  0  0  0
   -8.1032   10.5418   -7.5834 H   0  0  0  0  0  0  0  0  0  0  0  0
   -7.3924    8.8923   -7.5624 H   0  0  0  0  0  0  0  0  0  0  0  0
   -4.1971   12.8720  -10.8613 H   0  0  0  0  0  0  0  0  0  0  0  0
   -2.6221   14.5745  -10.8136 H   0  0  0  0  0  0  0  0  0  0  0  0
   -3.0817   14.9010  -12.5191 H   0  0  0  0  0  0  0  0  0  0  0  0
   -3.9787   15.6934  -11.1797 H   0  0  0  0  0  0  0  0  0  0  0  0
   -6.7407   12.3094   -6.9043 H   0  0  0  0  0  0  0  0  0  0  0  0
   -4.5143   13.2904   -6.4764 H   0  0  0  0  0  0  0  0  0  0  0  0
   -2.6607    9.7496   -8.0512 H   0  0  0  0  0  0  0  0  0  0  0  0
   -4.8939    8.7820   -8.4907 H   0  0  0  0  0  0  0  0  0  0  0  0
   -2.4321   14.1965   -6.1989 H   0  0  0  0  0  0  0  0  0  0  0  0
   -0.6606   10.5688   -7.5878 H   0  0  0  0  0  0  0  0  0  0  0  0
    0.9713   15.0036   -6.8329 H   0  0  0  0  0  0  0  0  0  0  0  0
   -0.2256   15.3572   -5.5409 H   0  0  0  0  0  0  0  0  0  0  0  0
    3.2752   13.4021   -4.8384 H   0  0  0  0  0  0  0  0  0  0  0  0
    1.7145   12.9160   -3.1533 H   0  0  0  0  0  0  0  0  0  0  0  0
    0.0563   13.5598   -3.4030 H   0  0  0  0  0  0  0  0  0  0  0  0
    0.6818   12.2530   -4.4649 H   0  0  0  0  0  0  0  0  0  0  0  0
    2.7591   15.1317   -3.3552 H   0  0  0  0  0  0  0  0  0  0  0  0
    2.4859   16.1517   -4.8082 H   0  0  0  0  0  0  0  0  0  0  0  0
    1.1747   15.9421   -3.5985 H   0  0  0  0  0  0  0  0  0  0  0  0
  1  2  2  0  0  0  0
  1  4  1  0  0  0  0
  1 13  1  0  0  0  0
  2  6  1  0  0  0  0
  3  4  2  0  0  0  0
  3  5  1  0  0  0  0
  5  6  1  0  0  0  0
  5  9  2  0  0  0  0
  6  7  1  0  0  0  0
  7  8  2  0  0  0  0
  7 10  1  0  0  0  0
  8  9  1  0  0  0  0
 10 15  1  0  0  0  0
 11 12  1  0  0  0  0
 11 13  1  0  0  0  0
 13 14  2  0  0  0  0
 15 16  2  0  0  0  0
 15 20  1  0  0  0  0
 16 17  1  0  0  0  0
 17 18  2  0  0  0  0
 18 19  1  0  0  0  0
 18 21  1  0  0  0  0
 19 20  2  0  0  0  0
 21 22  2  0  0  0  0
 21 25  1  0  0  0  0
 22 23  1  0  0  0  0
 23 24  1  0  0  0  0
 23 26  1  0  0  0  0
 24 25  2  0  0  0  0
 26 27  1  0  0  0  0
 27 28  1  0  0  0  0
 27 29  1  0  0  0  0
 27 30  1  0  0  0  0
  2 31  1  0  0  0  0
  3 32  1  0  0  0  0
  4 33  1  0  0  0  0
  6 34  1  0  0  0  0
 10 35  1  0  0  0  0
 10 36  1  0  0  0  0
 11 37  1  0  0  0  0
 12 38  1  0  0  0  0
 12 39  1  0  0  0  0
 12 40  1  0  0  0  0
 16 41  1  0  0  0  0
 17 42  1  0  0  0  0
 19 43  1  0  0  0  0
 20 44  1  0  0  0  0
 22 45  1  0  0  0  0
 25 46  1  0  0  0  0
 26 47  1  0  0  0  0
 26 48  1  0  0  0  0
 28 49  1  0  0  0  0
 29 50  1  0  0  0  0
 29 51  1  0  0  0  0
 29 52  1  0  0  0  0
 30 53  1  0  0  0  0
 30 54  1  0  0  0  0
 30 55  1  0  0  0  0
M  END
> <Name>
20

> <IC50[uM]>
0.016

$$$$
20
  -OEChem-05192314333D
 Structure written by MMmdl.
 55 58  0     0  0  0  0  0  0999 V2000
   -6.3740   12.3524  -12.0161 C   0  0  0  0  0  0  0  0  0  0  0  0
   -6.5100   11.8065  -10.7374 C   0  0  0  0  0  0  0  0  0  0  0  0
   -7.7222   10.5841  -13.0265 C   0  0  0  0  0  0  0  0  0  0  0  0
   -6.9887   11.7756  -13.1353 C   0  0  0  0  0  0  0  0  0  0  0  0
   -7.8163   10.0177  -11.7563 C   0  0  0  0  0  0  0  0  0  0  0  0
   -7.2425   10.6185  -10.6022 C   0  0  0  0  0  0  0  0  0  0  0  0
   -7.6172    9.7487   -9.5090 C   0  0  0  0  0  0  0  0  0  0  0  0
   -8.2846    8.7289   -9.9848 N   0  0  0  0  0  0  0  0  0  0  0  0
   -8.4176    8.8659  -11.2967 N   0  0  0  0  0  0  0  0  0  0  0  0
   -7.3368    9.8884   -8.0257 C   0  0  0  0  0  0  0  0  0  0  0  0
   -4.4023   13.6480  -11.4578 N   0  0  0  0  0  0  0  0  0  0  0  0
   -3.4623   14.7747  -11.4948 C   0  0  0  0  0  0  0  0  0  0  0  0
   -5.5331   13.6158  -12.1961 C   0  0  0  0  0  0  0  0  0  0  0  0
   -5.8776   14.5022  -12.9731 O   0  0  0  0  0  0  0  0  0  0  0  0
   -5.9585   10.4860   -7.7354 C   0  0  0  0  0  0  0  0  0  0  0  0
   -5.8494   11.7555   -7.1596 C   0  0  0  0  0  0  0  0  0  0  0  0
   -4.5968   12.3068   -6.9148 C   0  0  0  0  0  0  0  0  0  0  0  0
   -3.4468   11.5860   -7.2370 C   0  0  0  0  0  0  0  0  0  0  0  0
   -3.5513   10.3089   -7.8057 C   0  0  0  0  0  0  0  0  0  0  0  0
   -4.8090    9.7654   -8.0523 C   0  0  0  0  0  0  0  0  0  0  0  0
   -2.0901   12.1669   -6.9801 C   0  0  0  0  0  0  0  0  0  0  0  0
   -1.7479   13.4121   -6.4872 C   0  0  0  0  0  0  0  0  0  0  0  0
   -0.3990   13.4663   -6.4328 N   0  0  0  0  0  0  0  0  0  0  0  0
    0.1869   12.3691   -6.8386 N   0  0  0  0  0  0  0  0  0  0  0  0
   -0.8034   11.5628   -7.1902 C   0  0  0  0  0  0  0  0  0  0  0  0
    0.4389   14.5894   -5.9640 C   0  0  0  0  0  0  0  0  0  0  0  0
    1.5042   14.2139   -4.8744 C   0  0  0  0  0  0  0  0  0  0  0  0
    2.6302   13.6295   -5.4977 O   0  0  0  0  0  0  0  0  0  0  0  0
    0.9501   13.1612   -3.9053 C   0  0  0  0  0  0  0  0  0  0  0  0
    2.0179   15.4484   -4.1037 C   0  0  0  0  0  0  0  0  0  0  0  0
   -6.0641   12.2854   -9.8782 H   0  0  0  0  0  0  0  0  0  0  0  0
   -8.7448   10.7898  -13.3757 H   0  0  0  0  0  0  0  0  0  0  0  0
   -7.2513    9.8419  -13.6878 H   0  0  0  0  0  0  0  0  0  0  0  0
   -6.8965   12.2561  -14.0981 H   0  0  0  0  0  0  0  0  0  0  0  0
   -8.1032   10.5418   -7.5834 H   0  0  0  0  0  0  0  0  0  0  0  0
   -7.3924    8.8923   -7.5624 H   0  0  0  0  0  0  0  0  0  0  0  0
   -4.1971   12.8720  -10.8613 H   0  0  0  0  0  0  0  0  0  0  0  0
   -2.6221   14.5745  -10.8136 H   0  0  0  0  0  0  0  0  0  0  0  0
   -3.0817   14.9010  -12.5191 H   0  0  0  0  0  0  0  0  0  0  0  0
   -3.9787   15.6934  -11.1797 H   0  0  0  0  0  0  0  0  0  0  0  0
   -6.7407   12.3094   -6.9043 H   0  0  0  0  0  0  0  0  0  0  0  0
   -4.5143   13.2904   -6.4764 H   0  0  0  0  0  0  0  0  0  0  0  0
   -2.6607    9.7496   -8.0512 H   0  0  0  0  0  0  0  0  0  0  0  0
   -4.8939    8.7820   -8.4907 H   0  0  0  0  0  0  0  0  0  0  0  0
   -2.4321   14.1965   -6.1989 H   0  0  0  0  0  0  0  0  0  0  0  0
   -0.6606   10.5688   -7.5878 H   0  0  0  0  0  0  0  0  0  0  0  0
    0.9713   15.0036   -6.8329 H   0  0  0  0  0  0  0  0  0  0  0  0
   -0.2256   15.3572   -5.5409 H   0  0  0  0  0  0  0  0  0  0  0  0
    3.2752   13.4021   -4.8384 H   0  0  0  0  0  0  0  0  0  0  0  0
    1.7145   12.9160   -3.1533 H   0  0  0  0  0  0  0  0  0  0  0  0
    0.0563   13.5598   -3.4030 H   0  0  0  0  0  0  0  0  0  0  0  0
    0.6818   12.2530   -4.4649 H   0  0  0  0  0  0  0  0  0  0  0  0
    2.7591   15.1317   -3.3552 H   0  0  0  0  0  0  0  0  0  0  0  0
    2.4859   16.1517   -4.8082 H   0  0  0  0  0  0  0  0  0  0  0  0
    1.1747   15.9421   -3.5985 H   0  0  0  0  0  0  0  0  0  0  0  0
  1  2  1  0  0  0  0
  1  4  2  0  0  0  0
  1 13  1  0  0  0  0
  2  6  2  0  0  0  0
  3  4  1  0  0  0  0
  3  5  1  0  0  0  0
  5  6  1  0  0  0  0
  5  9  2  0  0  0  0
  6  7  1  0  0  0  0
  7  8  2  0  0  0  0
  7 10  1  0  0  0  0
  8  9  1  0  0  0  0
 10 15  1  0  0  0  0
 11 12  1  0  0  0  0
 11 13  1  0  0  0  0
 13 14  2  0  0  0  0
 15 16  2  0  0  0  0
 15 20  1  0  0  0  0
 16 17  1  0  0  0  0
 17 18  2  0  0  0  0
 18 19  1  0  0  0  0
 18 21  1  0  0  0  0
 19 20  2  0  0  0  0
 21 22  2  0  0  0  0
 21 25  1  0  0  0  0
 22 23  1  0  0  0  0
 23 24  1  0  0  0  0
 23 26  1  0  0  0  0
 24 25  2  0  0  0  0
 26 27  1  0  0  0  0
 27 28  1  0  0  0  0
 27 29  1  0  0  0  0
 27 30  1  0  0  0  0
  2 31  1  0  0  0  0
  3 32  1  0  0  0  0
  3 33  1  0  0  0  0
  4 34  1  0  0  0  0
 10 35  1  0  0  0  0
 10 36  1  0  0  0  0
 11 37  1  0  0  0  0
 12 38  1  0  0  0  0
 12 39  1  0  0  0  0
 12 40  1  0  0  0  0
 16 41  1  0  0  0  0
 17 42  1  0  0  0  0
 19 43  1  0  0  0  0
 20 44  1  0  0  0  0
 22 45  1  0  0  0  0
 25 46  1  0  0  0  0
 26 47  1  0  0  0  0
 26 48  1  0  0  0  0
 28 49  1  0  0  0  0
 29 50  1  0  0  0  0
 29 51  1  0  0  0  0
 29 52  1  0  0  0  0
 30 53  1  0  0  0  0
 30 54  1  0  0  0  0
 30 55  1  0  0  0  0
M  END
> <Name>
20

> <IC50[uM]>
0.016

$$$$
20
  -OEChem-05192314333D
 Structure written by MMmdl.
 55 58  0     1  0  0  0  0  0999 V2000
   -6.3740   12.3524  -12.0161 C   0  0  3  0  0  0  0  0  0  0  0  0
   -6.5100   11.8065  -10.7374 C   0  0  0  0  0  0  0  0  0  0  0  0
   -7.7222   10.5841  -13.0265 C   0  0  0  0  0  0  0  0  0  0  0  0
   -6.9887   11.7756  -13.1353 C   0  0  0  0  0  0  0  0  0  0  0  0
   -7.8163   10.0177  -11.7563 C   0  0  0  0  0  0  0  0  0  0  0  0
   -7.2425   10.6185  -10.6022 C   0  0  0  0  0  0  0  0  0  0  0  0
   -7.6172    9.7487   -9.5090 C   0  0  0  0  0  0  0  0  0  0  0  0
   -8.2846    8.7289   -9.9848 N   0  0  0  0  0  0  0  0  0  0  0  0
   -8.4176    8.8659  -11.2967 N   0  0  0  0  0  0  0  0  0  0  0  0
   -7.3368    9.8884   -8.0257 C   0  0  0  0  0  0  0  0  0  0  0  0
   -4.4023   13.6480  -11.4578 N   0  0  0  0  0  0  0  0  0  0  0  0
   -3.4623   14.7747  -11.4948 C   0  0  0  0  0  0  0  0  0  0  0  0
   -5.5331   13.6158  -12.1961 C   0  0  0  0  0  0  0  0  0  0  0  0
   -5.8776   14.5022  -12.9731 O   0  0  0  0  0  0  0  0  0  0  0  0
   -5.9585   10.4860   -7.7354 C   0  0  0  0  0  0  0  0  0  0  0  0
   -5.8494   11.7555   -7.1596 C   0  0  0  0  0  0  0  0  0  0  0  0
   -4.5968   12.3068   -6.9148 C   0  0  0  0  0  0  0  0  0  0  0  0
   -3.4468   11.5860   -7.2370 C   0  0  0  0  0  0  0  0  0  0  0  0
   -3.5513   10.3089   -7.8057 C   0  0  0  0  0  0  0  0  0  0  0  0
   -4.8090    9.7654   -8.0523 C   0  0  0  0  0  0  0  0  0  0  0  0
   -2.0901   12.1669   -6.9801 C   0  0  0  0  0  0  0  0  0  0  0  0
   -1.7479   13.4121   -6.4872 C   0  0  0  0  0  0  0  0  0  0  0  0
   -0.3990   13.4663   -6.4328 N   0  0  0  0  0  0  0  0  0  0  0  0
    0.1869   12.3691   -6.8386 N   0  0  0  0  0  0  0  0  0  0  0  0
   -0.8034   11.5628   -7.1902 C   0  0  0  0  0  0  0  0  0  0  0  0
    0.4389   14.5894   -5.9640 C   0  0  0  0  0  0  0  0  0  0  0  0
    1.5042   14.2139   -4.8744 C   0  0  0  0  0  0  0  0  0  0  0  0
    2.6302   13.6295   -5.4977 O   0  0  0  0  0  0  0  0  0  0  0  0
    0.9501   13.1612   -3.9053 C   0  0  0  0  0  0  0  0  0  0  0  0
    2.0179   15.4484   -4.1037 C   0  0  0  0  0  0  0  0  0  0  0  0
   -5.4811   11.7330  -12.1864 H   0  0  0  0  0  0  0  0  0  0  0  0
   -6.0641   12.2854   -9.8782 H   0  0  0  0  0  0  0  0  0  0  0  0
   -8.1913   10.1279  -13.8857 H   0  0  0  0  0  0  0  0  0  0  0  0
   -6.8965   12.2561  -14.0981 H   0  0  0  0  0  0  0  0  0  0  0  0
   -8.1032   10.5418   -7.5834 H   0  0  0  0  0  0  0  0  0  0  0  0
   -7.3924    8.8923   -7.5624 H   0  0  0  0  0  0  0  0  0  0  0  0
   -2.6221   14.5745  -10.8136 H   0  0  0  0  0  0  0  0  0  0  0  0
   -3.0817   14.9010  -12.5191 H   0  0  0  0  0  0  0  0  0  0  0  0
   -3.9787   15.6934  -11.1797 H   0  0  0  0  0  0  0  0  0  0  0  0
   -5.2393   15.2056  -12.9549 H   0  0  0  0  0  0  0  0  0  0  0  0
   -6.7407   12.3094   -6.9043 H   0  0  0  0  0  0  0  0  0  0  0  0
   -4.5143   13.2904   -6.4764 H   0  0  0  0  0  0  0  0  0  0  0  0
   -2.6607    9.7496   -8.0512 H   0  0  0  0  0  0  0  0  0  0  0  0
   -4.8939    8.7820   -8.4907 H   0  0  0  0  0  0  0  0  0  0  0  0
   -2.4321   14.1965   -6.1989 H   0  0  0  0  0  0  0  0  0  0  0  0
   -0.6606   10.5688   -7.5878 H   0  0  0  0  0  0  0  0  0  0  0  0
    0.9713   15.0036   -6.8329 H   0  0  0  0  0  0  0  0  0  0  0  0
   -0.2256   15.3572   -5.5409 H   0  0  0  0  0  0  0  0  0  0  0  0
    3.2752   13.4021   -4.8384 H   0  0  0  0  0  0  0  0  0  0  0  0
    1.7145   12.9160   -3.1533 H   0  0  0  0  0  0  0  0  0  0  0  0
    0.0563   13.5598   -3.4030 H   0  0  0  0  0  0  0  0  0  0  0  0
    0.6818   12.2530   -4.4649 H   0  0  0  0  0  0  0  0  0  0  0  0
    2.7591   15.1317   -3.3552 H   0  0  0  0  0  0  0  0  0  0  0  0
    2.4859   16.1517   -4.8082 H   0  0  0  0  0  0  0  0  0  0  0  0
    1.1747   15.9421   -3.5985 H   0  0  0  0  0  0  0  0  0  0  0  0
  1  2  1  0  0  0  0
  1  4  1  0  0  0  0
  1 13  1  0  0  0  0
  2  6  2  0  0  0  0
  3  4  2  0  0  0  0
  3  5  1  0  0  0  0
  5  6  1  0  0  0  0
  5  9  2  0  0  0  0
  6  7  1  0  0  0  0
  7  8  2  0  0  0  0
  7 10  1  0  0  0  0
  8  9  1  0  0  0  0
 10 15  1  0  0  0  0
 11 12  1  0  0  0  0
 11 13  2  0  0  0  0
 13 14  1  0  0  0  0
 15 16  2  0  0  0  0
 15 20  1  0  0  0  0
 16 17  1  0  0  0  0
 17 18  2  0  0  0  0
 18 19  1  0  0  0  0
 18 21  1  0  0  0  0
 19 20  2  0  0  0  0
 21 22  2  0  0  0  0
 21 25  1  0  0  0  0
 22 23  1  0  0  0  0
 23 24  1  0  0  0  0
 23 26  1  0  0  0  0
 24 25  2  0  0  0  0
 26 27  1  0  0  0  0
 27 28  1  0  0  0  0
 27 29  1  0  0  0  0
 27 30  1  0  0  0  0
  1 31  1  0  0  0  0
  2 32  1  0  0  0  0
  3 33  1  0  0  0  0
  4 34  1  0  0  0  0
 10 35  1  0  0  0  0
 10 36  1  0  0  0  0
 12 37  1  0  0  0  0
 12 38  1  0  0  0  0
 12 39  1  0  0  0  0
 14 40  1  0  0  0  0
 16 41  1  0  0  0  0
 17 42  1  0  0  0  0
 19 43  1  0  0  0  0
 20 44  1  0  0  0  0
 22 45  1  0  0  0  0
 25 46  1  0  0  0  0
 26 47  1  0  0  0  0
 26 48  1  0  0  0  0
 28 49  1  0  0  0  0
 29 50  1  0  0  0  0
 29 51  1  0  0  0  0
 29 52  1  0  0  0  0
 30 53  1  0  0  0  0
 30 54  1  0  0  0  0
 30 55  1  0  0  0  0
M  END
> <Name>
20

> <IC50[uM]>
0.016

$$$$
20
  -OEChem-05192314333D
 Structure written by MMmdl.
 55 58  0     1  0  0  0  0  0999 V2000
   -6.3740   12.3524  -12.0161 C   0  0  0  0  0  0  0  0  0  0  0  0
   -6.5100   11.8065  -10.7374 C   0  0  0  0  0  0  0  0  0  0  0  0
   -7.7222   10.5841  -13.0265 C   0  0  0  0  0  0  0  0  0  0  0  0
   -6.9887   11.7756  -13.1353 C   0  0  0  0  0  0  0  0  0  0  0  0
   -7.8163   10.0177  -11.7563 C   0  0  0  0  0  0  0  0  0  0  0  0
   -7.2425   10.6185  -10.6022 C   0  0  3  0  0  0  0  0  0  0  0  0
   -7.6172    9.7487   -9.5090 C   0  0  0  0  0  0  0  0  0  0  0  0
   -8.2846    8.7289   -9.9848 N   0  0  0  0  0  0  0  0  0  0  0  0
   -8.4176    8.8659  -11.2967 N   0  0  0  0  0  0  0  0  0  0  0  0
   -7.3368    9.8884   -8.0257 C   0  0  0  0  0  0  0  0  0  0  0  0
   -4.4023   13.6480  -11.4578 N   0  0  0  0  0  0  0  0  0  0  0  0
   -3.4623   14.7747  -11.4948 C   0  0  0  0  0  0  0  0  0  0  0  0
   -5.5331   13.6158  -12.1961 C   0  0  0  0  0  0  0  0  0  0  0  0
   -5.8776   14.5022  -12.9731 O   0  0  0  0  0  0  0  0  0  0  0  0
   -5.9585   10.4860   -7.7354 C   0  0  0  0  0  0  0  0  0  0  0  0
   -5.8494   11.7555   -7.1596 C   0  0  0  0  0  0  0  0  0  0  0  0
   -4.5968   12.3068   -6.9148 C   0  0  0  0  0  0  0  0  0  0  0  0
   -3.4468   11.5860   -7.2370 C   0  0  0  0  0  0  0  0  0  0  0  0
   -3.5513   10.3089   -7.8057 C   0  0  0  0  0  0  0  0  0  0  0  0
   -4.8090    9.7654   -8.0523 C   0  0  0  0  0  0  0  0  0  0  0  0
   -2.0901   12.1669   -6.9801 C   0  0  0  0  0  0  0  0  0  0  0  0
   -1.7479   13.4121   -6.4872 C   0  0  0  0  0  0  0  0  0  0  0  0
   -0.3990   13.4663   -6.4328 N   0  0  0  0  0  0  0  0  0  0  0  0
    0.1869   12.3691   -6.8386 N   0  0  0  0  0  0  0  0  0  0  0  0
   -0.8034   11.5628   -7.1902 C   0  0  0  0  0  0  0  0  0  0  0  0
    0.4389   14.5894   -5.9640 C   0  0  0  0  0  0  0  0  0  0  0  0
    1.5042   14.2139   -4.8744 C   0  0  0  0  0  0  0  0  0  0  0  0
    2.6302   13.6295   -5.4977 O   0  0  0  0  0  0  0  0  0  0  0  0
    0.9501   13.1612   -3.9053 C   0  0  0  0  0  0  0  0  0  0  0  0
    2.0179   15.4484   -4.1037 C   0  0  0  0  0  0  0  0  0  0  0  0
   -6.0641   12.2854   -9.8782 H   0  0  0  0  0  0  0  0  0  0  0  0
   -8.1913   10.1279  -13.8857 H   0  0  0  0  0  0  0  0  0  0  0  0
   -6.8965   12.2561  -14.0981 H   0  0  0  0  0  0  0  0  0  0  0  0
   -6.3233   10.0335  -10.7537 H   0  0  0  0  0  0  0  0  0  0  0  0
   -8.1032   10.5418   -7.5834 H   0  0  0  0  0  0  0  0  0  0  0  0
   -7.3924    8.8923   -7.5624 H   0  0  0  0  0  0  0  0  0  0  0  0
   -2.6221   14.5745  -10.8136 H   0  0  0  0  0  0  0  0  0  0  0  0
   -3.0817   14.9010  -12.5191 H   0  0  0  0  0  0  0  0  0  0  0  0
   -3.9787   15.6934  -11.1797 H   0  0  0  0  0  0  0  0  0  0  0  0
   -5.2393   15.2056  -12.9549 H   0  0  0  0  0  0  0  0  0  0  0  0
   -6.7407   12.3094   -6.9043 H   0  0  0  0  0  0  0  0  0  0  0  0
   -4.5143   13.2904   -6.4764 H   0  0  0  0  0  0  0  0  0  0  0  0
   -2.6607    9.7496   -8.0512 H   0  0  0  0  0  0  0  0  0  0  0  0
   -4.8939    8.7820   -8.4907 H   0  0  0  0  0  0  0  0  0  0  0  0
   -2.4321   14.1965   -6.1989 H   0  0  0  0  0  0  0  0  0  0  0  0
   -0.6606   10.5688   -7.5878 H   0  0  0  0  0  0  0  0  0  0  0  0
    0.9713   15.0036   -6.8329 H   0  0  0  0  0  0  0  0  0  0  0  0
   -0.2256   15.3572   -5.5409 H   0  0  0  0  0  0  0  0  0  0  0  0
    3.2752   13.4021   -4.8384 H   0  0  0  0  0  0  0  0  0  0  0  0
    1.7145   12.9160   -3.1533 H   0  0  0  0  0  0  0  0  0  0  0  0
    0.0563   13.5598   -3.4030 H   0  0  0  0  0  0  0  0  0  0  0  0
    0.6818   12.2530   -4.4649 H   0  0  0  0  0  0  0  0  0  0  0  0
    2.7591   15.1317   -3.3552 H   0  0  0  0  0  0  0  0  0  0  0  0
    2.4859   16.1517   -4.8082 H   0  0  0  0  0  0  0  0  0  0  0  0
    1.1747   15.9421   -3.5985 H   0  0  0  0  0  0  0  0  0  0  0  0
  1  2  2  0  0  0  0
  1  4  1  0  0  0  0
  1 13  1  0  0  0  0
  2  6  1  0  0  0  0
  3  4  2  0  0  0  0
  3  5  1  0  0  0  0
  5  6  1  0  0  0  0
  5  9  2  0  0  0  0
  6  7  1  0  0  0  0
  7  8  2  0  0  0  0
  7 10  1  0  0  0  0
  8  9  1  0  0  0  0
 10 15  1  0  0  0  0
 11 12  1  0  0  0  0
 11 13  2  0  0  0  0
 13 14  1  0  0  0  0
 15 16  2  0  0  0  0
 15 20  1  0  0  0  0
 16 17  1  0  0  0  0
 17 18  2  0  0  0  0
 18 19  1  0  0  0  0
 18 21  1  0  0  0  0
 19 20  2  0  0  0  0
 21 22  2  0  0  0  0
 21 25  1  0  0  0  0
 22 23  1  0  0  0  0
 23 24  1  0  0  0  0
 23 26  1  0  0  0  0
 24 25  2  0  0  0  0
 26 27  1  0  0  0  0
 27 28  1  0  0  0  0
 27 29  1  0  0  0  0
 27 30  1  0  0  0  0
  2 31  1  0  0  0  0
  3 32  1  0  0  0  0
  4 33  1  0  0  0  0
  6 34  1  0  0  0  0
 10 35  1  0  0  0  0
 10 36  1  0  0  0  0
 12 37  1  0  0  0  0
 12 38  1  0  0  0  0
 12 39  1  0  0  0  0
 14 40  1  0  0  0  0
 16 41  1  0  0  0  0
 17 42  1  0  0  0  0
 19 43  1  0  0  0  0
 20 44  1  0  0  0  0
 22 45  1  0  0  0  0
 25 46  1  0  0  0  0
 26 47  1  0  0  0  0
 26 48  1  0  0  0  0
 28 49  1  0  0  0  0
 29 50  1  0  0  0  0
 29 51  1  0  0  0  0
 29 52  1  0  0  0  0
 30 53  1  0  0  0  0
 30 54  1  0  0  0  0
 30 55  1  0  0  0  0
M  END
> <Name>
20

> <IC50[uM]>
0.016

$$$$
20
  -OEChem-05192314333D
 Structure written by MMmdl.
 55 58  0     0  0  0  0  0  0999 V2000
   -6.3740   12.3524  -12.0161 C   0  0  0  0  0  0  0  0  0  0  0  0
   -6.5100   11.8065  -10.7374 C   0  0  0  0  0  0  0  0  0  0  0  0
   -7.7222   10.5841  -13.0265 C   0  0  0  0  0  0  0  0  0  0  0  0
   -6.9887   11.7756  -13.1353 C   0  0  0  0  0  0  0  0  0  0  0  0
   -7.8163   10.0177  -11.7563 C   0  0  0  0  0  0  0  0  0  0  0  0
   -7.2425   10.6185  -10.6022 C   0  0  0  0  0  0  0  0  0  0  0  0
   -7.6172    9.7487   -9.5090 C   0  0  0  0  0  0  0  0  0  0  0  0
   -8.2846    8.7289   -9.9848 N   0  0  0  0  0  0  0  0  0  0  0  0
   -8.4176    8.8659  -11.2967 N   0  0  0  0  0  0  0  0  0  0  0  0
   -7.3368    9.8884   -8.0257 C   0  0  0  0  0  0  0  0  0  0  0  0
   -4.4023   13.6480  -11.4578 N   0  0  0  0  0  0  0  0  0  0  0  0
   -3.4623   14.7747  -11.4948 C   0  0  0  0  0  0  0  0  0  0  0  0
   -5.5331   13.6158  -12.1961 C   0  0  0  0  0  0  0  0  0  0  0  0
   -5.8776   14.5022  -12.9731 O   0  0  0  0  0  0  0  0  0  0  0  0
   -5.9585   10.4860   -7.7354 C   0  0  0  0  0  0  0  0  0  0  0  0
   -5.8494   11.7555   -7.1596 C   0  0  0  0  0  0  0  0  0  0  0  0
   -4.5968   12.3068   -6.9148 C   0  0  0  0  0  0  0  0  0  0  0  0
   -3.4468   11.5860   -7.2370 C   0  0  0  0  0  0  0  0  0  0  0  0
   -3.5513   10.3089   -7.8057 C   0  0  0  0  0  0  0  0  0  0  0  0
   -4.8090    9.7654   -8.0523 C   0  0  0  0  0  0  0  0  0  0  0  0
   -2.0901   12.1669   -6.9801 C   0  0  0  0  0  0  0  0  0  0  0  0
   -1.7479   13.4121   -6.4872 C   0  0  0  0  0  0  0  0  0  0  0  0
   -0.3990   13.4663   -6.4328 N   0  0  0  0  0  0  0  0  0  0  0  0
    0.1869   12.3691   -6.8386 N   0  0  0  0  0  0  0  0  0  0  0  0
   -0.8034   11.5628   -7.1902 C   0  0  0  0  0  0  0  0  0  0  0  0
    0.4389   14.5894   -5.9640 C   0  0  0  0  0  0  0  0  0  0  0  0
    1.5042   14.2139   -4.8744 C   0  0  0  0  0  0  0  0  0  0  0  0
    2.6302   13.6295   -5.4977 O   0  0  0  0  0  0  0  0  0  0  0  0
    0.9501   13.1612   -3.9053 C   0  0  0  0  0  0  0  0  0  0  0  0
    2.0179   15.4484   -4.1037 C   0  0  0  0  0  0  0  0  0  0  0  0
   -6.0641   12.2854   -9.8782 H   0  0  0  0  0  0  0  0  0  0  0  0
   -8.7448   10.7898  -13.3757 H   0  0  0  0  0  0  0  0  0  0  0  0
   -7.2513    9.8419  -13.6878 H   0  0  0  0  0  0  0  0  0  0  0  0
   -6.8965   12.2561  -14.0981 H   0  0  0  0  0  0  0  0  0  0  0  0
   -8.1032   10.5418   -7.5834 H   0  0  0  0  0  0  0  0  0  0  0  0
   -7.3924    8.8923   -7.5624 H   0  0  0  0  0  0  0  0  0  0  0  0
   -2.6221   14.5745  -10.8136 H   0  0  0  0  0  0  0  0  0  0  0  0
   -3.0817   14.9010  -12.5191 H   0  0  0  0  0  0  0  0  0  0  0  0
   -3.9787   15.6934  -11.1797 H   0  0  0  0  0  0  0  0  0  0  0  0
   -5.2393   15.2056  -12.9549 H   0  0  0  0  0  0  0  0  0  0  0  0
   -6.7407   12.3094   -6.9043 H   0  0  0  0  0  0  0  0  0  0  0  0
   -4.5143   13.2904   -6.4764 H   0  0  0  0  0  0  0  0  0  0  0  0
   -2.6607    9.7496   -8.0512 H   0  0  0  0  0  0  0  0  0  0  0  0
   -4.8939    8.7820   -8.4907 H   0  0  0  0  0  0  0  0  0  0  0  0
   -2.4321   14.1965   -6.1989 H   0  0  0  0  0  0  0  0  0  0  0  0
   -0.6606   10.5688   -7.5878 H   0  0  0  0  0  0  0  0  0  0  0  0
    0.9713   15.0036   -6.8329 H   0  0  0  0  0  0  0  0  0  0  0  0
   -0.2256   15.3572   -5.5409 H   0  0  0  0  0  0  0  0  0  0  0  0
    3.2752   13.4021   -4.8384 H   0  0  0  0  0  0  0  0  0  0  0  0
    1.7145   12.9160   -3.1533 H   0  0  0  0  0  0  0  0  0  0  0  0
    0.0563   13.5598   -3.4030 H   0  0  0  0  0  0  0  0  0  0  0  0
    0.6818   12.2530   -4.4649 H   0  0  0  0  0  0  0  0  0  0  0  0
    2.7591   15.1317   -3.3552 H   0  0  0  0  0  0  0  0  0  0  0  0
    2.4859   16.1517   -4.8082 H   0  0  0  0  0  0  0  0  0  0  0  0
    1.1747   15.9421   -3.5985 H   0  0  0  0  0  0  0  0  0  0  0  0
  1  2  1  0  0  0  0
  1  4  2  0  0  0  0
  1 13  1  0  0  0  0
  2  6  2  0  0  0  0
  3  4  1  0  0  0  0
  3  5  1  0  0  0  0
  5  6  1  0  0  0  0
  5  9  2  0  0  0  0
  6  7  1  0  0  0  0
  7  8  2  0  0  0  0
  7 10  1  0  0  0  0
  8  9  1  0  0  0  0
 10 15  1  0  0  0  0
 11 12  1  0  0  0  0
 11 13  2  0  0  0  0
 13 14  1  0  0  0  0
 15 16  2  0  0  0  0
 15 20  1  0  0  0  0
 16 17  1  0  0  0  0
 17 18  2  0  0  0  0
 18 19  1  0  0  0  0
 18 21  1  0  0  0  0
 19 20  2  0  0  0  0
 21 22  2  0  0  0  0
 21 25  1  0  0  0  0
 22 23  1  0  0  0  0
 23 24  1  0  0  0  0
 23 26  1  0  0  0  0
 24 25  2  0  0  0  0
 26 27  1  0  0  0  0
 27 28  1  0  0  0  0
 27 29  1  0  0  0  0
 27 30  1  0  0  0  0
  2 31  1  0  0  0  0
  3 32  1  0  0  0  0
  3 33  1  0  0  0  0
  4 34  1  0  0  0  0
 10 35  1  0  0  0  0
 10 36  1  0  0  0  0
 12 37  1  0  0  0  0
 12 38  1  0  0  0  0
 12 39  1  0  0  0  0
 14 40  1  0  0  0  0
 16 41  1  0  0  0  0
 17 42  1  0  0  0  0
 19 43  1  0  0  0  0
 20 44  1  0  0  0  0
 22 45  1  0  0  0  0
 25 46  1  0  0  0  0
 26 47  1  0  0  0  0
 26 48  1  0  0  0  0
 28 49  1  0  0  0  0
 29 50  1  0  0  0  0
 29 51  1  0  0  0  0
 29 52  1  0  0  0  0
 30 53  1  0  0  0  0
 30 54  1  0  0  0  0
 30 55  1  0  0  0  0
M  END
> <Name>
20

> <IC50[uM]>
0.016

$$$$
20
  -OEChem-05192314333D
 Structure written by MMmdl.
 55 58  0     0  0  0  0  0  0999 V2000
   -6.3740   12.3524  -12.0161 C   0  0  0  0  0  0  0  0  0  0  0  0
   -6.5100   11.8065  -10.7374 C   0  0  0  0  0  0  0  0  0  0  0  0
   -7.7222   10.5841  -13.0265 C   0  0  0  0  0  0  0  0  0  0  0  0
   -6.9887   11.7756  -13.1353 C   0  0  0  0  0  0  0  0  0  0  0  0
   -7.8163   10.0177  -11.7563 C   0  0  0  0  0  0  0  0  0  0  0  0
   -7.2425   10.6185  -10.6022 C   0  0  0  0  0  0  0  0  0  0  0  0
   -7.6172    9.7487   -9.5090 C   0  0  0  0  0  0  0  0  0  0  0  0
   -8.2846    8.7289   -9.9848 N   0  0  0  0  0  0  0  0  0  0  0  0
   -8.4176    8.8659  -11.2967 N   0  0  0  0  0  0  0  0  0  0  0  0
   -7.3368    9.8884   -8.0257 C   0  0  0  0  0  0  0  0  0  0  0  0
   -4.4023   13.6480  -11.4578 N   0  0  0  0  0  0  0  0  0  0  0  0
   -3.4623   14.7747  -11.4948 C   0  0  0  0  0  0  0  0  0  0  0  0
   -5.5331   13.6158  -12.1961 C   0  0  0  0  0  0  0  0  0  0  0  0
   -5.8776   14.5022  -12.9731 O   0  0  0  0  0  0  0  0  0  0  0  0
   -5.9585   10.4860   -7.7354 C   0  0  0  0  0  0  0  0  0  0  0  0
   -5.8494   11.7555   -7.1596 C   0  0  0  0  0  0  0  0  0  0  0  0
   -4.5968   12.3068   -6.9148 C   0  0  0  0  0  0  0  0  0  0  0  0
   -3.4468   11.5860   -7.2370 C   0  0  0  0  0  0  0  0  0  0  0  0
   -3.5513   10.3089   -7.8057 C   0  0  0  0  0  0  0  0  0  0  0  0
   -4.8090    9.7654   -8.0523 C   0  0  0  0  0  0  0  0  0  0  0  0
   -2.0901   12.1669   -6.9801 C   0  0  0  0  0  0  0  0  0  0  0  0
   -1.7479   13.4121   -6.4872 C   0  0  0  0  0  0  0  0  0  0  0  0
   -0.3990   13.4663   -6.4328 N   0  0  0  0  0  0  0  0  0  0  0  0
    0.1869   12.3691   -6.8386 N   0  0  0  0  0  0  0  0  0  0  0  0
   -0.8034   11.5628   -7.1902 C   0  0  0  0  0  0  0  0  0  0  0  0
    0.4389   14.5894   -5.9640 C   0  0  0  0  0  0  0  0  0  0  0  0
    1.5042   14.2139   -4.8744 C   0  0  0  0  0  0  0  0  0  0  0  0
    2.6302   13.6295   -5.4977 O   0  0  0  0  0  0  0  0  0  0  0  0
    0.9501   13.1612   -3.9053 C   0  0  0  0  0  0  0  0  0  0  0  0
    2.0179   15.4484   -4.1037 C   0  0  0  0  0  0  0  0  0  0  0  0
   -6.0641   12.2854   -9.8782 H   0  0  0  0  0  0  0  0  0  0  0  0
   -8.1913   10.1279  -13.8857 H   0  0  0  0  0  0  0  0  0  0  0  0
   -6.8965   12.2561  -14.0981 H   0  0  0  0  0  0  0  0  0  0  0  0
   -8.0357    9.5970   -7.2556 H   0  0  0  0  0  0  0  0  0  0  0  0
   -4.1971   12.8720  -10.8613 H   0  0  0  0  0  0  0  0  0  0  0  0
   -2.6221   14.5745  -10.8136 H   0  0  0  0  0  0  0  0  0  0  0  0
   -3.0817   14.9010  -12.5191 H   0  0  0  0  0  0  0  0  0  0  0  0
   -3.9787   15.6934  -11.1797 H   0  0  0  0  0  0  0  0  0  0  0  0
   -5.9701   10.0308   -6.7341 H   0  0  0  0  0  0  0  0  0  0  0  0
   -6.7407   12.3094   -6.9043 H   0  0  0  0  0  0  0  0  0  0  0  0
   -4.5143   13.2904   -6.4764 H   0  0  0  0  0  0  0  0  0  0  0  0
   -3.4456   11.1385   -6.2321 H   0  0  0  0  0  0  0  0  0  0  0  0
   -2.6607    9.7496   -8.0512 H   0  0  0  0  0  0  0  0  0  0  0  0
   -4.8939    8.7820   -8.4907 H   0  0  0  0  0  0  0  0  0  0  0  0
   -2.4321   14.1965   -6.1989 H   0  0  0  0  0  0  0  0  0  0  0  0
   -0.6606   10.5688   -7.5878 H   0  0  0  0  0  0  0  0  0  0  0  0
    0.9713   15.0036   -6.8329 H   0  0  0  0  0  0  0  0  0  0  0  0
   -0.2256   15.3572   -5.5409 H   0  0  0  0  0  0  0  0  0  0  0  0
    3.2752   13.4021   -4.8384 H   0  0  0  0  0  0  0  0  0  0  0  0
    1.7145   12.9160   -3.1533 H   0  0  0  0  0  0  0  0  0  0  0  0
    0.0563   13.5598   -3.4030 H   0  0  0  0  0  0  0  0  0  0  0  0
    0.6818   12.2530   -4.4649 H   0  0  0  0  0  0  0  0  0  0  0  0
    2.7591   15.1317   -3.3552 H   0  0  0  0  0  0  0  0  0  0  0  0
    2.4859   16.1517   -4.8082 H   0  0  0  0  0  0  0  0  0  0  0  0
    1.1747   15.9421   -3.5985 H   0  0  0  0  0  0  0  0  0  0  0  0
  1  2  2  0  0  0  0
  1  4  1  0  0  0  0
  1 13  1  0  0  0  0
  2  6  1  0  0  0  0
  3  4  2  0  0  0  0
  3  5  1  0  0  0  0
  5  6  2  0  0  0  0
  5  9  1  0  0  0  0
  6  7  1  0  0  0  0
  7  8  1  0  0  0  0
  7 10  2  3  0  0  0
  8  9  2  0  0  0  0
 10 15  1  0  0  0  0
 11 12  1  0  0  0  0
 11 13  1  0  0  0  0
 13 14  2  0  0  0  0
 15 16  1  0  0  0  0
 15 20  1  0  0  0  0
 16 17  2  0  0  0  0
 17 18  1  0  0  0  0
 18 19  1  0  0  0  0
 18 21  1  0  0  0  0
 19 20  2  0  0  0  0
 21 22  2  0  0  0  0
 21 25  1  0  0  0  0
 22 23  1  0  0  0  0
 23 24  1  0  0  0  0
 23 26  1  0  0  0  0
 24 25  2  0  0  0  0
 26 27  1  0  0  0  0
 27 28  1  0  0  0  0
 27 29  1  0  0  0  0
 27 30  1  0  0  0  0
  2 31  1  0  0  0  0
  3 32  1  0  0  0  0
  4 33  1  0  0  0  0
 10 34  1  0  0  0  0
 11 35  1  0  0  0  0
 12 36  1  0  0  0  0
 12 37  1  0  0  0  0
 12 38  1  0  0  0  0
 15 39  1  0  0  0  0
 16 40  1  0  0  0  0
 17 41  1  0  0  0  0
 18 42  1  0  0  0  0
 19 43  1  0  0  0  0
 20 44  1  0  0  0  0
 22 45  1  0  0  0  0
 25 46  1  0  0  0  0
 26 47  1  0  0  0  0
 26 48  1  0  0  0  0
 28 49  1  0  0  0  0
 29 50  1  0  0  0  0
 29 51  1  0  0  0  0
 29 52  1  0  0  0  0
 30 53  1  0  0  0  0
 30 54  1  0  0  0  0
 30 55  1  0  0  0  0
M  END
> <Name>
20

> <IC50[uM]>
0.016

$$$$
20
  -OEChem-05192314333D
 Structure written by MMmdl.
 55 58  0     1  0  0  0  0  0999 V2000
   -6.3740   12.3524  -12.0161 C   0  0  0  0  0  0  0  0  0  0  0  0
   -6.5100   11.8065  -10.7374 C   0  0  0  0  0  0  0  0  0  0  0  0
   -7.7222   10.5841  -13.0265 C   0  0  0  0  0  0  0  0  0  0  0  0
   -6.9887   11.7756  -13.1353 C   0  0  0  0  0  0  0  0  0  0  0  0
   -7.8163   10.0177  -11.7563 C   0  0  0  0  0  0  0  0  0  0  0  0
   -7.2425   10.6185  -10.6022 C   0  0  0  0  0  0  0  0  0  0  0  0
   -7.6172    9.7487   -9.5090 C   0  0  3  0  0  0  0  0  0  0  0  0
   -8.2846    8.7289   -9.9848 N   0  0  0  0  0  0  0  0  0  0  0  0
   -8.4176    8.8659  -11.2967 N   0  0  0  0  0  0  0  0  0  0  0  0
   -7.3368    9.8884   -8.0257 C   0  0  0  0  0  0  0  0  0  0  0  0
   -4.4023   13.6480  -11.4578 N   0  0  0  0  0  0  0  0  0  0  0  0
   -3.4623   14.7747  -11.4948 C   0  0  0  0  0  0  0  0  0  0  0  0
   -5.5331   13.6158  -12.1961 C   0  0  0  0  0  0  0  0  0  0  0  0
   -5.8776   14.5022  -12.9731 O   0  0  0  0  0  0  0  0  0  0  0  0
   -5.9585   10.4860   -7.7354 C   0  0  0  0  0  0  0  0  0  0  0  0
   -5.8494   11.7555   -7.1596 C   0  0  0  0  0  0  0  0  0  0  0  0
   -4.5968   12.3068   -6.9148 C   0  0  0  0  0  0  0  0  0  0  0  0
   -3.4468   11.5860   -7.2370 C   0  0  0  0  0  0  0  0  0  0  0  0
   -3.5513   10.3089   -7.8057 C   0  0  0  0  0  0  0  0  0  0  0  0
   -4.8090    9.7654   -8.0523 C   0  0  0  0  0  0  0  0  0  0  0  0
   -2.0901   12.1669   -6.9801 C   0  0  0  0  0  0  0  0  0  0  0  0
   -1.7479   13.4121   -6.4872 C   0  0  0  0  0  0  0  0  0  0  0  0
   -0.3990   13.4663   -6.4328 N   0  0  0  0  0  0  0  0  0  0  0  0
    0.1869   12.3691   -6.8386 N   0  0  0  0  0  0  0  0  0  0  0  0
   -0.8034   11.5628   -7.1902 C   0  0  0  0  0  0  0  0  0  0  0  0
    0.4389   14.5894   -5.9640 C   0  0  0  0  0  0  0  0  0  0  0  0
    1.5042   14.2139   -4.8744 C   0  0  0  0  0  0  0  0  0  0  0  0
    2.6302   13.6295   -5.4977 O   0  0  0  0  0  0  0  0  0  0  0  0
    0.9501   13.1612   -3.9053 C   0  0  0  0  0  0  0  0  0  0  0  0
    2.0179   15.4484   -4.1037 C   0  0  0  0  0  0  0  0  0  0  0  0
   -6.0641   12.2854   -9.8782 H   0  0  0  0  0  0  0  0  0  0  0  0
   -8.1913   10.1279  -13.8857 H   0  0  0  0  0  0  0  0  0  0  0  0
   -6.8965   12.2561  -14.0981 H   0  0  0  0  0  0  0  0  0  0  0  0
   -8.5567   10.3073   -9.3851 H   0  0  0  0  0  0  0  0  0  0  0  0
   -8.0357    9.5970   -7.2556 H   0  0  0  0  0  0  0  0  0  0  0  0
   -4.1971   12.8720  -10.8613 H   0  0  0  0  0  0  0  0  0  0  0  0
   -2.6221   14.5745  -10.8136 H   0  0  0  0  0  0  0  0  0  0  0  0
   -3.0817   14.9010  -12.5191 H   0  0  0  0  0  0  0  0  0  0  0  0
   -3.9787   15.6934  -11.1797 H   0  0  0  0  0  0  0  0  0  0  0  0
   -6.7407   12.3094   -6.9043 H   0  0  0  0  0  0  0  0  0  0  0  0
   -4.5143   13.2904   -6.4764 H   0  0  0  0  0  0  0  0  0  0  0  0
   -3.4456   11.1385   -6.2321 H   0  0  0  0  0  0  0  0  0  0  0  0
   -2.6607    9.7496   -8.0512 H   0  0  0  0  0  0  0  0  0  0  0  0
   -4.8939    8.7820   -8.4907 H   0  0  0  0  0  0  0  0  0  0  0  0
   -2.4321   14.1965   -6.1989 H   0  0  0  0  0  0  0  0  0  0  0  0
   -0.6606   10.5688   -7.5878 H   0  0  0  0  0  0  0  0  0  0  0  0
    0.9713   15.0036   -6.8329 H   0  0  0  0  0  0  0  0  0  0  0  0
   -0.2256   15.3572   -5.5409 H   0  0  0  0  0  0  0  0  0  0  0  0
    3.2752   13.4021   -4.8384 H   0  0  0  0  0  0  0  0  0  0  0  0
    1.7145   12.9160   -3.1533 H   0  0  0  0  0  0  0  0  0  0  0  0
    0.0563   13.5598   -3.4030 H   0  0  0  0  0  0  0  0  0  0  0  0
    0.6818   12.2530   -4.4649 H   0  0  0  0  0  0  0  0  0  0  0  0
    2.7591   15.1317   -3.3552 H   0  0  0  0  0  0  0  0  0  0  0  0
    2.4859   16.1517   -4.8082 H   0  0  0  0  0  0  0  0  0  0  0  0
    1.1747   15.9421   -3.5985 H   0  0  0  0  0  0  0  0  0  0  0  0
  1  2  2  0  0  0  0
  1  4  1  0  0  0  0
  1 13  1  0  0  0  0
  2  6  1  0  0  0  0
  3  4  2  0  0  0  0
  3  5  1  0  0  0  0
  5  6  2  0  0  0  0
  5  9  1  0  0  0  0
  6  7  1  0  0  0  0
  7  8  1  0  0  0  0
  7 10  1  0  0  0  0
  8  9  2  0  0  0  0
 10 15  2  0  0  0  0
 11 12  1  0  0  0  0
 11 13  1  0  0  0  0
 13 14  2  0  0  0  0
 15 16  1  0  0  0  0
 15 20  1  0  0  0  0
 16 17  2  0  0  0  0
 17 18  1  0  0  0  0
 18 19  1  0  0  0  0
 18 21  1  0  0  0  0
 19 20  2  0  0  0  0
 21 22  2  0  0  0  0
 21 25  1  0  0  0  0
 22 23  1  0  0  0  0
 23 24  1  0  0  0  0
 23 26  1  0  0  0  0
 24 25  2  0  0  0  0
 26 27  1  0  0  0  0
 27 28  1  0  0  0  0
 27 29  1  0  0  0  0
 27 30  1  0  0  0  0
  2 31  1  0  0  0  0
  3 32  1  0  0  0  0
  4 33  1  0  0  0  0
  7 34  1  0  0  0  0
 10 35  1  0  0  0  0
 11 36  1  0  0  0  0
 12 37  1  0  0  0  0
 12 38  1  0  0  0  0
 12 39  1  0  0  0  0
 16 40  1  0  0  0  0
 17 41  1  0  0  0  0
 18 42  1  0  0  0  0
 19 43  1  0  0  0  0
 20 44  1  0  0  0  0
 22 45  1  0  0  0  0
 25 46  1  0  0  0  0
 26 47  1  0  0  0  0
 26 48  1  0  0  0  0
 28 49  1  0  0  0  0
 29 50  1  0  0  0  0
 29 51  1  0  0  0  0
 29 52  1  0  0  0  0
 30 53  1  0  0  0  0
 30 54  1  0  0  0  0
 30 55  1  0  0  0  0
M  END
> <Name>
20

> <IC50[uM]>
0.016

$$$$
20
  -OEChem-05192314333D
 Structure written by MMmdl.
 55 58  0     1  0  0  0  0  0999 V2000
   -6.3740   12.3524  -12.0161 C   0  0  3  0  0  0  0  0  0  0  0  0
   -6.5100   11.8065  -10.7374 C   0  0  0  0  0  0  0  0  0  0  0  0
   -7.7222   10.5841  -13.0265 C   0  0  0  0  0  0  0  0  0  0  0  0
   -6.9887   11.7756  -13.1353 C   0  0  0  0  0  0  0  0  0  0  0  0
   -7.8163   10.0177  -11.7563 C   0  0  3  0  0  0  0  0  0  0  0  0
   -7.2425   10.6185  -10.6022 C   0  0  0  0  0  0  0  0  0  0  0  0
   -7.6172    9.7487   -9.5090 C   0  0  0  0  0  0  0  0  0  0  0  0
   -8.2846    8.7289   -9.9848 N   0  0  0  0  0  0  0  0  0  0  0  0
   -8.4176    8.8659  -11.2967 N   0  0  0  0  0  0  0  0  0  0  0  0
   -7.3368    9.8884   -8.0257 C   0  0  0  0  0  0  0  0  0  0  0  0
   -4.4023   13.6480  -11.4578 N   0  0  0  0  0  0  0  0  0  0  0  0
   -3.4623   14.7747  -11.4948 C   0  0  0  0  0  0  0  0  0  0  0  0
   -5.5331   13.6158  -12.1961 C   0  0  0  0  0  0  0  0  0  0  0  0
   -5.8776   14.5022  -12.9731 O   0  0  0  0  0  0  0  0  0  0  0  0
   -5.9585   10.4860   -7.7354 C   0  0  0  0  0  0  0  0  0  0  0  0
   -5.8494   11.7555   -7.1596 C   0  0  0  0  0  0  0  0  0  0  0  0
   -4.5968   12.3068   -6.9148 C   0  0  0  0  0  0  0  0  0  0  0  0
   -3.4468   11.5860   -7.2370 C   0  0  0  0  0  0  0  0  0  0  0  0
   -3.5513   10.3089   -7.8057 C   0  0  0  0  0  0  0  0  0  0  0  0
   -4.8090    9.7654   -8.0523 C   0  0  0  0  0  0  0  0  0  0  0  0
   -2.0901   12.1669   -6.9801 C   0  0  0  0  0  0  0  0  0  0  0  0
   -1.7479   13.4121   -6.4872 C   0  0  0  0  0  0  0  0  0  0  0  0
   -0.3990   13.4663   -6.4328 N   0  0  0  0  0  0  0  0  0  0  0  0
    0.1869   12.3691   -6.8386 N   0  0  0  0  0  0  0  0  0  0  0  0
   -0.8034   11.5628   -7.1902 C   0  0  0  0  0  0  0  0  0  0  0  0
    0.4389   14.5894   -5.9640 C   0  0  0  0  0  0  0  0  0  0  0  0
    1.5042   14.2139   -4.8744 C   0  0  0  0  0  0  0  0  0  0  0  0
    2.6302   13.6295   -5.4977 O   0  0  0  0  0  0  0  0  0  0  0  0
    0.9501   13.1612   -3.9053 C   0  0  0  0  0  0  0  0  0  0  0  0
    2.0179   15.4484   -4.1037 C   0  0  0  0  0  0  0  0  0  0  0  0
   -5.4811   11.7330  -12.1864 H   0  0  0  0  0  0  0  0  0  0  0  0
   -6.0641   12.2854   -9.8782 H   0  0  0  0  0  0  0  0  0  0  0  0
   -8.1913   10.1279  -13.8857 H   0  0  0  0  0  0  0  0  0  0  0  0
   -6.8965   12.2561  -14.0981 H   0  0  0  0  0  0  0  0  0  0  0  0
   -6.8834    9.4622  -11.9330 H   0  0  0  0  0  0  0  0  0  0  0  0
   -8.0357    9.5970   -7.2556 H   0  0  0  0  0  0  0  0  0  0  0  0
   -4.1971   12.8720  -10.8613 H   0  0  0  0  0  0  0  0  0  0  0  0
   -2.6221   14.5745  -10.8136 H   0  0  0  0  0  0  0  0  0  0  0  0
   -3.0817   14.9010  -12.5191 H   0  0  0  0  0  0  0  0  0  0  0  0
   -3.9787   15.6934  -11.1797 H   0  0  0  0  0  0  0  0  0  0  0  0
   -6.7407   12.3094   -6.9043 H   0  0  0  0  0  0  0  0  0  0  0  0
   -4.5143   13.2904   -6.4764 H   0  0  0  0  0  0  0  0  0  0  0  0
   -2.6607    9.7496   -8.0512 H   0  0  0  0  0  0  0  0  0  0  0  0
   -4.8939    8.7820   -8.4907 H   0  0  0  0  0  0  0  0  0  0  0  0
   -2.4321   14.1965   -6.1989 H   0  0  0  0  0  0  0  0  0  0  0  0
   -0.6606   10.5688   -7.5878 H   0  0  0  0  0  0  0  0  0  0  0  0
    0.9713   15.0036   -6.8329 H   0  0  0  0  0  0  0  0  0  0  0  0
   -0.2256   15.3572   -5.5409 H   0  0  0  0  0  0  0  0  0  0  0  0
    3.2752   13.4021   -4.8384 H   0  0  0  0  0  0  0  0  0  0  0  0
    1.7145   12.9160   -3.1533 H   0  0  0  0  0  0  0  0  0  0  0  0
    0.0563   13.5598   -3.4030 H   0  0  0  0  0  0  0  0  0  0  0  0
    0.6818   12.2530   -4.4649 H   0  0  0  0  0  0  0  0  0  0  0  0
    2.7591   15.1317   -3.3552 H   0  0  0  0  0  0  0  0  0  0  0  0
    2.4859   16.1517   -4.8082 H   0  0  0  0  0  0  0  0  0  0  0  0
    1.1747   15.9421   -3.5985 H   0  0  0  0  0  0  0  0  0  0  0  0
  1  2  1  0  0  0  0
  1  4  1  0  0  0  0
  1 13  1  0  0  0  0
  2  6  2  0  0  0  0
  3  4  2  0  0  0  0
  3  5  1  0  0  0  0
  5  6  1  0  0  0  0
  5  9  1  0  0  0  0
  6  7  1  0  0  0  0
  7  8  1  0  0  0  0
  7 10  2  3  0  0  0
  8  9  2  0  0  0  0
 10 15  1  0  0  0  0
 11 12  1  0  0  0  0
 11 13  1  0  0  0  0
 13 14  2  0  0  0  0
 15 16  2  0  0  0  0
 15 20  1  0  0  0  0
 16 17  1  0  0  0  0
 17 18  2  0  0  0  0
 18 19  1  0  0  0  0
 18 21  1  0  0  0  0
 19 20  2  0  0  0  0
 21 22  2  0  0  0  0
 21 25  1  0  0  0  0
 22 23  1  0  0  0  0
 23 24  1  0  0  0  0
 23 26  1  0  0  0  0
 24 25  2  0  0  0  0
 26 27  1  0  0  0  0
 27 28  1  0  0  0  0
 27 29  1  0  0  0  0
 27 30  1  0  0  0  0
  1 31  1  0  0  0  0
  2 32  1  0  0  0  0
  3 33  1  0  0  0  0
  4 34  1  0  0  0  0
  5 35  1  0  0  0  0
 10 36  1  0  0  0  0
 11 37  1  0  0  0  0
 12 38  1  0  0  0  0
 12 39  1  0  0  0  0
 12 40  1  0  0  0  0
 16 41  1  0  0  0  0
 17 42  1  0  0  0  0
 19 43  1  0  0  0  0
 20 44  1  0  0  0  0
 22 45  1  0  0  0  0
 25 46  1  0  0  0  0
 26 47  1  0  0  0  0
 26 48  1  0  0  0  0
 28 49  1  0  0  0  0
 29 50  1  0  0  0  0
 29 51  1  0  0  0  0
 29 52  1  0  0  0  0
 30 53  1  0  0  0  0
 30 54  1  0  0  0  0
 30 55  1  0  0  0  0
M  END
> <Name>
20

> <IC50[uM]>
0.016

$$$$
20
  -OEChem-05192314333D
 Structure written by MMmdl.
 55 58  0     1  0  0  0  0  0999 V2000
   -6.3740   12.3524  -12.0161 C   0  0  0  0  0  0  0  0  0  0  0  0
   -6.5100   11.8065  -10.7374 C   0  0  0  0  0  0  0  0  0  0  0  0
   -7.7222   10.5841  -13.0265 C   0  0  0  0  0  0  0  0  0  0  0  0
   -6.9887   11.7756  -13.1353 C   0  0  0  0  0  0  0  0  0  0  0  0
   -7.8163   10.0177  -11.7563 C   0  0  3  0  0  0  0  0  0  0  0  0
   -7.2425   10.6185  -10.6022 C   0  0  3  0  0  0  0  0  0  0  0  0
   -7.6172    9.7487   -9.5090 C   0  0  0  0  0  0  0  0  0  0  0  0
   -8.2846    8.7289   -9.9848 N   0  0  0  0  0  0  0  0  0  0  0  0
   -8.4176    8.8659  -11.2967 N   0  0  0  0  0  0  0  0  0  0  0  0
   -7.3368    9.8884   -8.0257 C   0  0  0  0  0  0  0  0  0  0  0  0
   -4.4023   13.6480  -11.4578 N   0  0  0  0  0  0  0  0  0  0  0  0
   -3.4623   14.7747  -11.4948 C   0  0  0  0  0  0  0  0  0  0  0  0
   -5.5331   13.6158  -12.1961 C   0  0  0  0  0  0  0  0  0  0  0  0
   -5.8776   14.5022  -12.9731 O   0  0  0  0  0  0  0  0  0  0  0  0
   -5.9585   10.4860   -7.7354 C   0  0  0  0  0  0  0  0  0  0  0  0
   -5.8494   11.7555   -7.1596 C   0  0  0  0  0  0  0  0  0  0  0  0
   -4.5968   12.3068   -6.9148 C   0  0  0  0  0  0  0  0  0  0  0  0
   -3.4468   11.5860   -7.2370 C   0  0  0  0  0  0  0  0  0  0  0  0
   -3.5513   10.3089   -7.8057 C   0  0  0  0  0  0  0  0  0  0  0  0
   -4.8090    9.7654   -8.0523 C   0  0  0  0  0  0  0  0  0  0  0  0
   -2.0901   12.1669   -6.9801 C   0  0  0  0  0  0  0  0  0  0  0  0
   -1.7479   13.4121   -6.4872 C   0  0  0  0  0  0  0  0  0  0  0  0
   -0.3990   13.4663   -6.4328 N   0  0  0  0  0  0  0  0  0  0  0  0
    0.1869   12.3691   -6.8386 N   0  0  0  0  0  0  0  0  0  0  0  0
   -0.8034   11.5628   -7.1902 C   0  0  0  0  0  0  0  0  0  0  0  0
    0.4389   14.5894   -5.9640 C   0  0  0  0  0  0  0  0  0  0  0  0
    1.5042   14.2139   -4.8744 C   0  0  0  0  0  0  0  0  0  0  0  0
    2.6302   13.6295   -5.4977 O   0  0  0  0  0  0  0  0  0  0  0  0
    0.9501   13.1612   -3.9053 C   0  0  0  0  0  0  0  0  0  0  0  0
    2.0179   15.4484   -4.1037 C   0  0  0  0  0  0  0  0  0  0  0  0
   -6.0641   12.2854   -9.8782 H   0  0  0  0  0  0  0  0  0  0  0  0
   -8.1913   10.1279  -13.8857 H   0  0  0  0  0  0  0  0  0  0  0  0
   -6.8965   12.2561  -14.0981 H   0  0  0  0  0  0  0  0  0  0  0  0
   -6.8834    9.4622  -11.9330 H   0  0  0  0  0  0  0  0  0  0  0  0
   -6.3233   10.0335  -10.7537 H   0  0  0  0  0  0  0  0  0  0  0  0
   -8.0357    9.5970   -7.2556 H   0  0  0  0  0  0  0  0  0  0  0  0
   -4.1971   12.8720  -10.8613 H   0  0  0  0  0  0  0  0  0  0  0  0
   -2.6221   14.5745  -10.8136 H   0  0  0  0  0  0  0  0  0  0  0  0
   -3.0817   14.9010  -12.5191 H   0  0  0  0  0  0  0  0  0  0  0  0
   -3.9787   15.6934  -11.1797 H   0  0  0  0  0  0  0  0  0  0  0  0
   -6.7407   12.3094   -6.9043 H   0  0  0  0  0  0  0  0  0  0  0  0
   -4.5143   13.2904   -6.4764 H   0  0  0  0  0  0  0  0  0  0  0  0
   -2.6607    9.7496   -8.0512 H   0  0  0  0  0  0  0  0  0  0  0  0
   -4.8939    8.7820   -8.4907 H   0  0  0  0  0  0  0  0  0  0  0  0
   -2.4321   14.1965   -6.1989 H   0  0  0  0  0  0  0  0  0  0  0  0
   -0.6606   10.5688   -7.5878 H   0  0  0  0  0  0  0  0  0  0  0  0
    0.9713   15.0036   -6.8329 H   0  0  0  0  0  0  0  0  0  0  0  0
   -0.2256   15.3572   -5.5409 H   0  0  0  0  0  0  0  0  0  0  0  0
    3.2752   13.4021   -4.8384 H   0  0  0  0  0  0  0  0  0  0  0  0
    1.7145   12.9160   -3.1533 H   0  0  0  0  0  0  0  0  0  0  0  0
    0.0563   13.5598   -3.4030 H   0  0  0  0  0  0  0  0  0  0  0  0
    0.6818   12.2530   -4.4649 H   0  0  0  0  0  0  0  0  0  0  0  0
    2.7591   15.1317   -3.3552 H   0  0  0  0  0  0  0  0  0  0  0  0
    2.4859   16.1517   -4.8082 H   0  0  0  0  0  0  0  0  0  0  0  0
    1.1747   15.9421   -3.5985 H   0  0  0  0  0  0  0  0  0  0  0  0
  1  2  2  0  0  0  0
  1  4  1  0  0  0  0
  1 13  1  0  0  0  0
  2  6  1  0  0  0  0
  3  4  2  0  0  0  0
  3  5  1  0  0  0  0
  5  6  1  0  0  0  0
  5  9  1  0  0  0  0
  6  7  1  0  0  0  0
  7  8  1  0  0  0  0
  7 10  2  3  0  0  0
  8  9  2  0  0  0  0
 10 15  1  0  0  0  0
 11 12  1  0  0  0  0
 11 13  1  0  0  0  0
 13 14  2  0  0  0  0
 15 16  2  0  0  0  0
 15 20  1  0  0  0  0
 16 17  1  0  0  0  0
 17 18  2  0  0  0  0
 18 19  1  0  0  0  0
 18 21  1  0  0  0  0
 19 20  2  0  0  0  0
 21 22  2  0  0  0  0
 21 25  1  0  0  0  0
 22 23  1  0  0  0  0
 23 24  1  0  0  0  0
 23 26  1  0  0  0  0
 24 25  2  0  0  0  0
 26 27  1  0  0  0  0
 27 28  1  0  0  0  0
 27 29  1  0  0  0  0
 27 30  1  0  0  0  0
  2 31  1  0  0  0  0
  3 32  1  0  0  0  0
  4 33  1  0  0  0  0
  5 34  1  0  0  0  0
  6 35  1  0  0  0  0
 10 36  1  0  0  0  0
 11 37  1  0  0  0  0
 12 38  1  0  0  0  0
 12 39  1  0  0  0  0
 12 40  1  0  0  0  0
 16 41  1  0  0  0  0
 17 42  1  0  0  0  0
 19 43  1  0  0  0  0
 20 44  1  0  0  0  0
 22 45  1  0  0  0  0
 25 46  1  0  0  0  0
 26 47  1  0  0  0  0
 26 48  1  0  0  0  0
 28 49  1  0  0  0  0
 29 50  1  0  0  0  0
 29 51  1  0  0  0  0
 29 52  1  0  0  0  0
 30 53  1  0  0  0  0
 30 54  1  0  0  0  0
 30 55  1  0  0  0  0
M  END
> <Name>
20

> <IC50[uM]>
0.016

$$$$
20
  -OEChem-05192314333D
 Structure written by MMmdl.
 55 58  0     1  0  0  0  0  0999 V2000
   -6.3740   12.3524  -12.0161 C   0  0  0  0  0  0  0  0  0  0  0  0
   -6.5100   11.8065  -10.7374 C   0  0  0  0  0  0  0  0  0  0  0  0
   -7.7222   10.5841  -13.0265 C   0  0  0  0  0  0  0  0  0  0  0  0
   -6.9887   11.7756  -13.1353 C   0  0  0  0  0  0  0  0  0  0  0  0
   -7.8163   10.0177  -11.7563 C   0  0  3  0  0  0  0  0  0  0  0  0
   -7.2425   10.6185  -10.6022 C   0  0  0  0  0  0  0  0  0  0  0  0
   -7.6172    9.7487   -9.5090 C   0  0  0  0  0  0  0  0  0  0  0  0
   -8.2846    8.7289   -9.9848 N   0  0  0  0  0  0  0  0  0  0  0  0
   -8.4176    8.8659  -11.2967 N   0  0  0  0  0  0  0  0  0  0  0  0
   -7.3368    9.8884   -8.0257 C   0  0  0  0  0  0  0  0  0  0  0  0
   -4.4023   13.6480  -11.4578 N   0  0  0  0  0  0  0  0  0  0  0  0
   -3.4623   14.7747  -11.4948 C   0  0  0  0  0  0  0  0  0  0  0  0
   -5.5331   13.6158  -12.1961 C   0  0  0  0  0  0  0  0  0  0  0  0
   -5.8776   14.5022  -12.9731 O   0  0  0  0  0  0  0  0  0  0  0  0
   -5.9585   10.4860   -7.7354 C   0  0  0  0  0  0  0  0  0  0  0  0
   -5.8494   11.7555   -7.1596 C   0  0  0  0  0  0  0  0  0  0  0  0
   -4.5968   12.3068   -6.9148 C   0  0  0  0  0  0  0  0  0  0  0  0
   -3.4468   11.5860   -7.2370 C   0  0  0  0  0  0  0  0  0  0  0  0
   -3.5513   10.3089   -7.8057 C   0  0  0  0  0  0  0  0  0  0  0  0
   -4.8090    9.7654   -8.0523 C   0  0  0  0  0  0  0  0  0  0  0  0
   -2.0901   12.1669   -6.9801 C   0  0  0  0  0  0  0  0  0  0  0  0
   -1.7479   13.4121   -6.4872 C   0  0  0  0  0  0  0  0  0  0  0  0
   -0.3990   13.4663   -6.4328 N   0  0  0  0  0  0  0  0  0  0  0  0
    0.1869   12.3691   -6.8386 N   0  0  0  0  0  0  0  0  0  0  0  0
   -0.8034   11.5628   -7.1902 C   0  0  0  0  0  0  0  0  0  0  0  0
    0.4389   14.5894   -5.9640 C   0  0  0  0  0  0  0  0  0  0  0  0
    1.5042   14.2139   -4.8744 C   0  0  0  0  0  0  0  0  0  0  0  0
    2.6302   13.6295   -5.4977 O   0  0  0  0  0  0  0  0  0  0  0  0
    0.9501   13.1612   -3.9053 C   0  0  0  0  0  0  0  0  0  0  0  0
    2.0179   15.4484   -4.1037 C   0  0  0  0  0  0  0  0  0  0  0  0
   -6.0641   12.2854   -9.8782 H   0  0  0  0  0  0  0  0  0  0  0  0
   -8.7448   10.7898  -13.3757 H   0  0  0  0  0  0  0  0  0  0  0  0
   -7.2513    9.8419  -13.6878 H   0  0  0  0  0  0  0  0  0  0  0  0
   -6.8965   12.2561  -14.0981 H   0  0  0  0  0  0  0  0  0  0  0  0
   -6.8834    9.4622  -11.9330 H   0  0  0  0  0  0  0  0  0  0  0  0
   -8.0357    9.5970   -7.2556 H   0  0  0  0  0  0  0  0  0  0  0  0
   -4.1971   12.8720  -10.8613 H   0  0  0  0  0  0  0  0  0  0  0  0
   -2.6221   14.5745  -10.8136 H   0  0  0  0  0  0  0  0  0  0  0  0
   -3.0817   14.9010  -12.5191 H   0  0  0  0  0  0  0  0  0  0  0  0
   -3.9787   15.6934  -11.1797 H   0  0  0  0  0  0  0  0  0  0  0  0
   -6.7407   12.3094   -6.9043 H   0  0  0  0  0  0  0  0  0  0  0  0
   -4.5143   13.2904   -6.4764 H   0  0  0  0  0  0  0  0  0  0  0  0
   -2.6607    9.7496   -8.0512 H   0  0  0  0  0  0  0  0  0  0  0  0
   -4.8939    8.7820   -8.4907 H   0  0  0  0  0  0  0  0  0  0  0  0
   -2.4321   14.1965   -6.1989 H   0  0  0  0  0  0  0  0  0  0  0  0
   -0.6606   10.5688   -7.5878 H   0  0  0  0  0  0  0  0  0  0  0  0
    0.9713   15.0036   -6.8329 H   0  0  0  0  0  0  0  0  0  0  0  0
   -0.2256   15.3572   -5.5409 H   0  0  0  0  0  0  0  0  0  0  0  0
    3.2752   13.4021   -4.8384 H   0  0  0  0  0  0  0  0  0  0  0  0
    1.7145   12.9160   -3.1533 H   0  0  0  0  0  0  0  0  0  0  0  0
    0.0563   13.5598   -3.4030 H   0  0  0  0  0  0  0  0  0  0  0  0
    0.6818   12.2530   -4.4649 H   0  0  0  0  0  0  0  0  0  0  0  0
    2.7591   15.1317   -3.3552 H   0  0  0  0  0  0  0  0  0  0  0  0
    2.4859   16.1517   -4.8082 H   0  0  0  0  0  0  0  0  0  0  0  0
    1.1747   15.9421   -3.5985 H   0  0  0  0  0  0  0  0  0  0  0  0
  1  2  1  0  0  0  0
  1  4  2  0  0  0  0
  1 13  1  0  0  0  0
  2  6  2  0  0  0  0
  3  4  1  0  0  0  0
  3  5  1  0  0  0  0
  5  6  1  0  0  0  0
  5  9  1  0  0  0  0
  6  7  1  0  0  0  0
  7  8  1  0  0  0  0
  7 10  2  3  0  0  0
  8  9  2  0  0  0  0
 10 15  1  0  0  0  0
 11 12  1  0  0  0  0
 11 13  1  0  0  0  0
 13 14  2  0  0  0  0
 15 16  2  0  0  0  0
 15 20  1  0  0  0  0
 16 17  1  0  0  0  0
 17 18  2  0  0  0  0
 18 19  1  0  0  0  0
 18 21  1  0  0  0  0
 19 20  2  0  0  0  0
 21 22  2  0  0  0  0
 21 25  1  0  0  0  0
 22 23  1  0  0  0  0
 23 24  1  0  0  0  0
 23 26  1  0  0  0  0
 24 25  2  0  0  0  0
 26 27  1  0  0  0  0
 27 28  1  0  0  0  0
 27 29  1  0  0  0  0
 27 30  1  0  0  0  0
  2 31  1  0  0  0  0
  3 32  1  0  0  0  0
  3 33  1  0  0  0  0
  4 34  1  0  0  0  0
  5 35  1  0  0  0  0
 10 36  1  0  0  0  0
 11 37  1  0  0  0  0
 12 38  1  0  0  0  0
 12 39  1  0  0  0  0
 12 40  1  0  0  0  0
 16 41  1  0  0  0  0
 17 42  1  0  0  0  0
 19 43  1  0  0  0  0
 20 44  1  0  0  0  0
 22 45  1  0  0  0  0
 25 46  1  0  0  0  0
 26 47  1  0  0  0  0
 26 48  1  0  0  0  0
 28 49  1  0  0  0  0
 29 50  1  0  0  0  0
 29 51  1  0  0  0  0
 29 52  1  0  0  0  0
 30 53  1  0  0  0  0
 30 54  1  0  0  0  0
 30 55  1  0  0  0  0
M  END
> <Name>
20

> <IC50[uM]>
0.016

$$$$
20
  -OEChem-05192314333D
 Structure written by MMmdl.
 55 58  0     1  0  0  0  0  0999 V2000
   -6.3740   12.3524  -12.0161 C   0  0  0  0  0  0  0  0  0  0  0  0
   -6.5100   11.8065  -10.7374 C   0  0  0  0  0  0  0  0  0  0  0  0
   -7.7222   10.5841  -13.0265 C   0  0  0  0  0  0  0  0  0  0  0  0
   -6.9887   11.7756  -13.1353 C   0  0  0  0  0  0  0  0  0  0  0  0
   -7.8163   10.0177  -11.7563 C   0  0  0  0  0  0  0  0  0  0  0  0
   -7.2425   10.6185  -10.6022 C   0  0  0  0  0  0  0  0  0  0  0  0
   -7.6172    9.7487   -9.5090 C   0  0  0  0  0  0  0  0  0  0  0  0
   -8.2846    8.7289   -9.9848 N   0  0  0  0  0  0  0  0  0  0  0  0
   -8.4176    8.8659  -11.2967 N   0  0  0  0  0  0  0  0  0  0  0  0
   -7.3368    9.8884   -8.0257 C   0  0  0  0  0  0  0  0  0  0  0  0
   -4.4023   13.6480  -11.4578 N   0  0  0  0  0  0  0  0  0  0  0  0
   -3.4623   14.7747  -11.4948 C   0  0  0  0  0  0  0  0  0  0  0  0
   -5.5331   13.6158  -12.1961 C   0  0  0  0  0  0  0  0  0  0  0  0
   -5.8776   14.5022  -12.9731 O   0  0  0  0  0  0  0  0  0  0  0  0
   -5.9585   10.4860   -7.7354 C   0  0  0  0  0  0  0  0  0  0  0  0
   -5.8494   11.7555   -7.1596 C   0  0  0  0  0  0  0  0  0  0  0  0
   -4.5968   12.3068   -6.9148 C   0  0  0  0  0  0  0  0  0  0  0  0
   -3.4468   11.5860   -7.2370 C   0  0  3  0  0  0  0  0  0  0  0  0
   -3.5513   10.3089   -7.8057 C   0  0  0  0  0  0  0  0  0  0  0  0
   -4.8090    9.7654   -8.0523 C   0  0  0  0  0  0  0  0  0  0  0  0
   -2.0901   12.1669   -6.9801 C   0  0  0  0  0  0  0  0  0  0  0  0
   -1.7479   13.4121   -6.4872 C   0  0  0  0  0  0  0  0  0  0  0  0
   -0.3990   13.4663   -6.4328 N   0  0  0  0  0  0  0  0  0  0  0  0
    0.1869   12.3691   -6.8386 N   0  0  0  0  0  0  0  0  0  0  0  0
   -0.8034   11.5628   -7.1902 C   0  0  0  0  0  0  0  0  0  0  0  0
    0.4389   14.5894   -5.9640 C   0  0  0  0  0  0  0  0  0  0  0  0
    1.5042   14.2139   -4.8744 C   0  0  0  0  0  0  0  0  0  0  0  0
    2.6302   13.6295   -5.4977 O   0  0  0  0  0  0  0  0  0  0  0  0
    0.9501   13.1612   -3.9053 C   0  0  0  0  0  0  0  0  0  0  0  0
    2.0179   15.4484   -4.1037 C   0  0  0  0  0  0  0  0  0  0  0  0
   -6.0641   12.2854   -9.8782 H   0  0  0  0  0  0  0  0  0  0  0  0
   -8.1913   10.1279  -13.8857 H   0  0  0  0  0  0  0  0  0  0  0  0
   -6.8965   12.2561  -14.0981 H   0  0  0  0  0  0  0  0  0  0  0  0
   -8.0357    9.5970   -7.2556 H   0  0  0  0  0  0  0  0  0  0  0  0
   -4.1971   12.8720  -10.8613 H   0  0  0  0  0  0  0  0  0  0  0  0
   -2.6221   14.5745  -10.8136 H   0  0  0  0  0  0  0  0  0  0  0  0
   -3.0817   14.9010  -12.5191 H   0  0  0  0  0  0  0  0  0  0  0  0
   -3.9787   15.6934  -11.1797 H   0  0  0  0  0  0  0  0  0  0  0  0
   -6.7407   12.3094   -6.9043 H   0  0  0  0  0  0  0  0  0  0  0  0
   -4.5489   13.2509   -7.4773 H   0  0  0  0  0  0  0  0  0  0  0  0
   -4.5477   12.5195   -5.8367 H   0  0  0  0  0  0  0  0  0  0  0  0
   -3.4456   11.1385   -6.2321 H   0  0  0  0  0  0  0  0  0  0  0  0
   -2.6607    9.7496   -8.0512 H   0  0  0  0  0  0  0  0  0  0  0  0
   -4.8939    8.7820   -8.4907 H   0  0  0  0  0  0  0  0  0  0  0  0
   -2.4321   14.1965   -6.1989 H   0  0  0  0  0  0  0  0  0  0  0  0
   -0.6606   10.5688   -7.5878 H   0  0  0  0  0  0  0  0  0  0  0  0
    0.9713   15.0036   -6.8329 H   0  0  0  0  0  0  0  0  0  0  0  0
   -0.2256   15.3572   -5.5409 H   0  0  0  0  0  0  0  0  0  0  0  0
    3.2752   13.4021   -4.8384 H   0  0  0  0  0  0  0  0  0  0  0  0
    1.7145   12.9160   -3.1533 H   0  0  0  0  0  0  0  0  0  0  0  0
    0.0563   13.5598   -3.4030 H   0  0  0  0  0  0  0  0  0  0  0  0
    0.6818   12.2530   -4.4649 H   0  0  0  0  0  0  0  0  0  0  0  0
    2.7591   15.1317   -3.3552 H   0  0  0  0  0  0  0  0  0  0  0  0
    2.4859   16.1517   -4.8082 H   0  0  0  0  0  0  0  0  0  0  0  0
    1.1747   15.9421   -3.5985 H   0  0  0  0  0  0  0  0  0  0  0  0
  1  2  2  0  0  0  0
  1  4  1  0  0  0  0
  1 13  1  0  0  0  0
  2  6  1  0  0  0  0
  3  4  2  0  0  0  0
  3  5  1  0  0  0  0
  5  6  2  0  0  0  0
  5  9  1  0  0  0  0
  6  7  1  0  0  0  0
  7  8  1  0  0  0  0
  7 10  2  3  0  0  0
  8  9  2  0  0  0  0
 10 15  1  0  0  0  0
 11 12  1  0  0  0  0
 11 13  1  0  0  0  0
 13 14  2  0  0  0  0
 15 16  2  0  0  0  0
 15 20  1  0  0  0  0
 16 17  1  0  0  0  0
 17 18  1  0  0  0  0
 18 19  1  0  0  0  0
 18 21  1  0  0  0  0
 19 20  2  0  0  0  0
 21 22  2  0  0  0  0
 21 25  1  0  0  0  0
 22 23  1  0  0  0  0
 23 24  1  0  0  0  0
 23 26  1  0  0  0  0
 24 25  2  0  0  0  0
 26 27  1  0  0  0  0
 27 28  1  0  0  0  0
 27 29  1  0  0  0  0
 27 30  1  0  0  0  0
  2 31  1  0  0  0  0
  3 32  1  0  0  0  0
  4 33  1  0  0  0  0
 10 34  1  0  0  0  0
 11 35  1  0  0  0  0
 12 36  1  0  0  0  0
 12 37  1  0  0  0  0
 12 38  1  0  0  0  0
 16 39  1  0  0  0  0
 17 40  1  0  0  0  0
 17 41  1  0  0  0  0
 18 42  1  0  0  0  0
 19 43  1  0  0  0  0
 20 44  1  0  0  0  0
 22 45  1  0  0  0  0
 25 46  1  0  0  0  0
 26 47  1  0  0  0  0
 26 48  1  0  0  0  0
 28 49  1  0  0  0  0
 29 50  1  0  0  0  0
 29 51  1  0  0  0  0
 29 52  1  0  0  0  0
 30 53  1  0  0  0  0
 30 54  1  0  0  0  0
 30 55  1  0  0  0  0
M  END
> <Name>
20

> <IC50[uM]>
0.016

$$$$
20
  -OEChem-05192314333D
 Structure written by MMmdl.
 55 58  0     1  0  0  0  0  0999 V2000
   -6.3740   12.3524  -12.0161 C   0  0  3  0  0  0  0  0  0  0  0  0
   -6.5100   11.8065  -10.7374 C   0  0  0  0  0  0  0  0  0  0  0  0
   -7.7222   10.5841  -13.0265 C   0  0  0  0  0  0  0  0  0  0  0  0
   -6.9887   11.7756  -13.1353 C   0  0  0  0  0  0  0  0  0  0  0  0
   -7.8163   10.0177  -11.7563 C   0  0  0  0  0  0  0  0  0  0  0  0
   -7.2425   10.6185  -10.6022 C   0  0  0  0  0  0  0  0  0  0  0  0
   -7.6172    9.7487   -9.5090 C   0  0  0  0  0  0  0  0  0  0  0  0
   -8.2846    8.7289   -9.9848 N   0  0  0  0  0  0  0  0  0  0  0  0
   -8.4176    8.8659  -11.2967 N   0  0  0  0  0  0  0  0  0  0  0  0
   -7.3368    9.8884   -8.0257 C   0  0  0  0  0  0  0  0  0  0  0  0
   -4.4023   13.6480  -11.4578 N   0  0  0  0  0  0  0  0  0  0  0  0
   -3.4623   14.7747  -11.4948 C   0  0  0  0  0  0  0  0  0  0  0  0
   -5.5331   13.6158  -12.1961 C   0  0  0  0  0  0  0  0  0  0  0  0
   -5.8776   14.5022  -12.9731 O   0  0  0  0  0  0  0  0  0  0  0  0
   -5.9585   10.4860   -7.7354 C   0  0  0  0  0  0  0  0  0  0  0  0
   -5.8494   11.7555   -7.1596 C   0  0  0  0  0  0  0  0  0  0  0  0
   -4.5968   12.3068   -6.9148 C   0  0  0  0  0  0  0  0  0  0  0  0
   -3.4468   11.5860   -7.2370 C   0  0  0  0  0  0  0  0  0  0  0  0
   -3.5513   10.3089   -7.8057 C   0  0  0  0  0  0  0  0  0  0  0  0
   -4.8090    9.7654   -8.0523 C   0  0  0  0  0  0  0  0  0  0  0  0
   -2.0901   12.1669   -6.9801 C   0  0  0  0  0  0  0  0  0  0  0  0
   -1.7479   13.4121   -6.4872 C   0  0  0  0  0  0  0  0  0  0  0  0
   -0.3990   13.4663   -6.4328 N   0  0  0  0  0  0  0  0  0  0  0  0
    0.1869   12.3691   -6.8386 N   0  0  0  0  0  0  0  0  0  0  0  0
   -0.8034   11.5628   -7.1902 C   0  0  0  0  0  0  0  0  0  0  0  0
    0.4389   14.5894   -5.9640 C   0  0  0  0  0  0  0  0  0  0  0  0
    1.5042   14.2139   -4.8744 C   0  0  0  0  0  0  0  0  0  0  0  0
    2.6302   13.6295   -5.4977 O   0  0  0  0  0  0  0  0  0  0  0  0
    0.9501   13.1612   -3.9053 C   0  0  0  0  0  0  0  0  0  0  0  0
    2.0179   15.4484   -4.1037 C   0  0  0  0  0  0  0  0  0  0  0  0
   -5.4811   11.7330  -12.1864 H   0  0  0  0  0  0  0  0  0  0  0  0
   -6.0641   12.2854   -9.8782 H   0  0  0  0  0  0  0  0  0  0  0  0
   -8.1913   10.1279  -13.8857 H   0  0  0  0  0  0  0  0  0  0  0  0
   -7.6795   12.5319  -13.5364 H   0  0  0  0  0  0  0  0  0  0  0  0
   -6.1895   11.5845  -13.8665 H   0  0  0  0  0  0  0  0  0  0  0  0
   -8.0357    9.5970   -7.2556 H   0  0  0  0  0  0  0  0  0  0  0  0
   -4.1971   12.8720  -10.8613 H   0  0  0  0  0  0  0  0  0  0  0  0
   -2.6221   14.5745  -10.8136 H   0  0  0  0  0  0  0  0  0  0  0  0
   -3.0817   14.9010  -12.5191 H   0  0  0  0  0  0  0  0  0  0  0  0
   -3.9787   15.6934  -11.1797 H   0  0  0  0  0  0  0  0  0  0  0  0
   -6.7407   12.3094   -6.9043 H   0  0  0  0  0  0  0  0  0  0  0  0
   -4.5143   13.2904   -6.4764 H   0  0  0  0  0  0  0  0  0  0  0  0
   -2.6607    9.7496   -8.0512 H   0  0  0  0  0  0  0  0  0  0  0  0
   -4.8939    8.7820   -8.4907 H   0  0  0  0  0  0  0  0  0  0  0  0
   -2.4321   14.1965   -6.1989 H   0  0  0  0  0  0  0  0  0  0  0  0
   -0.6606   10.5688   -7.5878 H   0  0  0  0  0  0  0  0  0  0  0  0
    0.9713   15.0036   -6.8329 H   0  0  0  0  0  0  0  0  0  0  0  0
   -0.2256   15.3572   -5.5409 H   0  0  0  0  0  0  0  0  0  0  0  0
    3.2752   13.4021   -4.8384 H   0  0  0  0  0  0  0  0  0  0  0  0
    1.7145   12.9160   -3.1533 H   0  0  0  0  0  0  0  0  0  0  0  0
    0.0563   13.5598   -3.4030 H   0  0  0  0  0  0  0  0  0  0  0  0
    0.6818   12.2530   -4.4649 H   0  0  0  0  0  0  0  0  0  0  0  0
    2.7591   15.1317   -3.3552 H   0  0  0  0  0  0  0  0  0  0  0  0
    2.4859   16.1517   -4.8082 H   0  0  0  0  0  0  0  0  0  0  0  0
    1.1747   15.9421   -3.5985 H   0  0  0  0  0  0  0  0  0  0  0  0
  1  2  1  0  0  0  0
  1  4  1  0  0  0  0
  1 13  1  0  0  0  0
  2  6  2  0  0  0  0
  3  4  1  0  0  0  0
  3  5  2  0  0  0  0
  5  6  1  0  0  0  0
  5  9  1  0  0  0  0
  6  7  1  0  0  0  0
  7  8  1  0  0  0  0
  7 10  2  3  0  0  0
  8  9  2  0  0  0  0
 10 15  1  0  0  0  0
 11 12  1  0  0  0  0
 11 13  1  0  0  0  0
 13 14  2  0  0  0  0
 15 16  2  0  0  0  0
 15 20  1  0  0  0  0
 16 17  1  0  0  0  0
 17 18  2  0  0  0  0
 18 19  1  0  0  0  0
 18 21  1  0  0  0  0
 19 20  2  0  0  0  0
 21 22  2  0  0  0  0
 21 25  1  0  0  0  0
 22 23  1  0  0  0  0
 23 24  1  0  0  0  0
 23 26  1  0  0  0  0
 24 25  2  0  0  0  0
 26 27  1  0  0  0  0
 27 28  1  0  0  0  0
 27 29  1  0  0  0  0
 27 30  1  0  0  0  0
  1 31  1  0  0  0  0
  2 32  1  0  0  0  0
  3 33  1  0  0  0  0
  4 34  1  0  0  0  0
  4 35  1  0  0  0  0
 10 36  1  0  0  0  0
 11 37  1  0  0  0  0
 12 38  1  0  0  0  0
 12 39  1  0  0  0  0
 12 40  1  0  0  0  0
 16 41  1  0  0  0  0
 17 42  1  0  0  0  0
 19 43  1  0  0  0  0
 20 44  1  0  0  0  0
 22 45  1  0  0  0  0
 25 46  1  0  0  0  0
 26 47  1  0  0  0  0
 26 48  1  0  0  0  0
 28 49  1  0  0  0  0
 29 50  1  0  0  0  0
 29 51  1  0  0  0  0
 29 52  1  0  0  0  0
 30 53  1  0  0  0  0
 30 54  1  0  0  0  0
 30 55  1  0  0  0  0
M  END
> <Name>
20

> <IC50[uM]>
0.016

$$$$
20
  -OEChem-05192314333D
 Structure written by MMmdl.
 55 58  0     1  0  0  0  0  0999 V2000
   -6.3740   12.3524  -12.0161 C   0  0  0  0  0  0  0  0  0  0  0  0
   -6.5100   11.8065  -10.7374 C   0  0  0  0  0  0  0  0  0  0  0  0
   -7.7222   10.5841  -13.0265 C   0  0  0  0  0  0  0  0  0  0  0  0
   -6.9887   11.7756  -13.1353 C   0  0  0  0  0  0  0  0  0  0  0  0
   -7.8163   10.0177  -11.7563 C   0  0  0  0  0  0  0  0  0  0  0  0
   -7.2425   10.6185  -10.6022 C   0  0  3  0  0  0  0  0  0  0  0  0
   -7.6172    9.7487   -9.5090 C   0  0  0  0  0  0  0  0  0  0  0  0
   -8.2846    8.7289   -9.9848 N   0  0  0  0  0  0  0  0  0  0  0  0
   -8.4176    8.8659  -11.2967 N   0  0  0  0  0  0  0  0  0  0  0  0
   -7.3368    9.8884   -8.0257 C   0  0  0  0  0  0  0  0  0  0  0  0
   -4.4023   13.6480  -11.4578 N   0  0  0  0  0  0  0  0  0  0  0  0
   -3.4623   14.7747  -11.4948 C   0  0  0  0  0  0  0  0  0  0  0  0
   -5.5331   13.6158  -12.1961 C   0  0  0  0  0  0  0  0  0  0  0  0
   -5.8776   14.5022  -12.9731 O   0  0  0  0  0  0  0  0  0  0  0  0
   -5.9585   10.4860   -7.7354 C   0  0  0  0  0  0  0  0  0  0  0  0
   -5.8494   11.7555   -7.1596 C   0  0  0  0  0  0  0  0  0  0  0  0
   -4.5968   12.3068   -6.9148 C   0  0  0  0  0  0  0  0  0  0  0  0
   -3.4468   11.5860   -7.2370 C   0  0  0  0  0  0  0  0  0  0  0  0
   -3.5513   10.3089   -7.8057 C   0  0  0  0  0  0  0  0  0  0  0  0
   -4.8090    9.7654   -8.0523 C   0  0  0  0  0  0  0  0  0  0  0  0
   -2.0901   12.1669   -6.9801 C   0  0  0  0  0  0  0  0  0  0  0  0
   -1.7479   13.4121   -6.4872 C   0  0  0  0  0  0  0  0  0  0  0  0
   -0.3990   13.4663   -6.4328 N   0  0  0  0  0  0  0  0  0  0  0  0
    0.1869   12.3691   -6.8386 N   0  0  0  0  0  0  0  0  0  0  0  0
   -0.8034   11.5628   -7.1902 C   0  0  0  0  0  0  0  0  0  0  0  0
    0.4389   14.5894   -5.9640 C   0  0  0  0  0  0  0  0  0  0  0  0
    1.5042   14.2139   -4.8744 C   0  0  0  0  0  0  0  0  0  0  0  0
    2.6302   13.6295   -5.4977 O   0  0  0  0  0  0  0  0  0  0  0  0
    0.9501   13.1612   -3.9053 C   0  0  0  0  0  0  0  0  0  0  0  0
    2.0179   15.4484   -4.1037 C   0  0  0  0  0  0  0  0  0  0  0  0
   -6.0641   12.2854   -9.8782 H   0  0  0  0  0  0  0  0  0  0  0  0
   -8.1913   10.1279  -13.8857 H   0  0  0  0  0  0  0  0  0  0  0  0
   -7.6795   12.5319  -13.5364 H   0  0  0  0  0  0  0  0  0  0  0  0
   -6.1895   11.5845  -13.8665 H   0  0  0  0  0  0  0  0  0  0  0  0
   -6.3233   10.0335  -10.7537 H   0  0  0  0  0  0  0  0  0  0  0  0
   -8.0357    9.5970   -7.2556 H   0  0  0  0  0  0  0  0  0  0  0  0
   -4.1971   12.8720  -10.8613 H   0  0  0  0  0  0  0  0  0  0  0  0
   -2.6221   14.5745  -10.8136 H   0  0  0  0  0  0  0  0  0  0  0  0
   -3.0817   14.9010  -12.5191 H   0  0  0  0  0  0  0  0  0  0  0  0
   -3.9787   15.6934  -11.1797 H   0  0  0  0  0  0  0  0  0  0  0  0
   -6.7407   12.3094   -6.9043 H   0  0  0  0  0  0  0  0  0  0  0  0
   -4.5143   13.2904   -6.4764 H   0  0  0  0  0  0  0  0  0  0  0  0
   -2.6607    9.7496   -8.0512 H   0  0  0  0  0  0  0  0  0  0  0  0
   -4.8939    8.7820   -8.4907 H   0  0  0  0  0  0  0  0  0  0  0  0
   -2.4321   14.1965   -6.1989 H   0  0  0  0  0  0  0  0  0  0  0  0
   -0.6606   10.5688   -7.5878 H   0  0  0  0  0  0  0  0  0  0  0  0
    0.9713   15.0036   -6.8329 H   0  0  0  0  0  0  0  0  0  0  0  0
   -0.2256   15.3572   -5.5409 H   0  0  0  0  0  0  0  0  0  0  0  0
    3.2752   13.4021   -4.8384 H   0  0  0  0  0  0  0  0  0  0  0  0
    1.7145   12.9160   -3.1533 H   0  0  0  0  0  0  0  0  0  0  0  0
    0.0563   13.5598   -3.4030 H   0  0  0  0  0  0  0  0  0  0  0  0
    0.6818   12.2530   -4.4649 H   0  0  0  0  0  0  0  0  0  0  0  0
    2.7591   15.1317   -3.3552 H   0  0  0  0  0  0  0  0  0  0  0  0
    2.4859   16.1517   -4.8082 H   0  0  0  0  0  0  0  0  0  0  0  0
    1.1747   15.9421   -3.5985 H   0  0  0  0  0  0  0  0  0  0  0  0
  1  2  2  0  0  0  0
  1  4  1  0  0  0  0
  1 13  1  0  0  0  0
  2  6  1  0  0  0  0
  3  4  1  0  0  0  0
  3  5  2  0  0  0  0
  5  6  1  0  0  0  0
  5  9  1  0  0  0  0
  6  7  1  0  0  0  0
  7  8  1  0  0  0  0
  7 10  2  3  0  0  0
  8  9  2  0  0  0  0
 10 15  1  0  0  0  0
 11 12  1  0  0  0  0
 11 13  1  0  0  0  0
 13 14  2  0  0  0  0
 15 16  2  0  0  0  0
 15 20  1  0  0  0  0
 16 17  1  0  0  0  0
 17 18  2  0  0  0  0
 18 19  1  0  0  0  0
 18 21  1  0  0  0  0
 19 20  2  0  0  0  0
 21 22  2  0  0  0  0
 21 25  1  0  0  0  0
 22 23  1  0  0  0  0
 23 24  1  0  0  0  0
 23 26  1  0  0  0  0
 24 25  2  0  0  0  0
 26 27  1  0  0  0  0
 27 28  1  0  0  0  0
 27 29  1  0  0  0  0
 27 30  1  0  0  0  0
  2 31  1  0  0  0  0
  3 32  1  0  0  0  0
  4 33  1  0  0  0  0
  4 34  1  0  0  0  0
  6 35  1  0  0  0  0
 10 36  1  0  0  0  0
 11 37  1  0  0  0  0
 12 38  1  0  0  0  0
 12 39  1  0  0  0  0
 12 40  1  0  0  0  0
 16 41  1  0  0  0  0
 17 42  1  0  0  0  0
 19 43  1  0  0  0  0
 20 44  1  0  0  0  0
 22 45  1  0  0  0  0
 25 46  1  0  0  0  0
 26 47  1  0  0  0  0
 26 48  1  0  0  0  0
 28 49  1  0  0  0  0
 29 50  1  0  0  0  0
 29 51  1  0  0  0  0
 29 52  1  0  0  0  0
 30 53  1  0  0  0  0
 30 54  1  0  0  0  0
 30 55  1  0  0  0  0
M  END
> <Name>
20

> <IC50[uM]>
0.016

$$$$
20
  -OEChem-05192314333D
 Structure written by MMmdl.
 55 58  0     0  0  0  0  0  0999 V2000
   -6.3740   12.3524  -12.0161 C   0  0  0  0  0  0  0  0  0  0  0  0
   -6.5100   11.8065  -10.7374 C   0  0  0  0  0  0  0  0  0  0  0  0
   -7.7222   10.5841  -13.0265 C   0  0  0  0  0  0  0  0  0  0  0  0
   -6.9887   11.7756  -13.1353 C   0  0  0  0  0  0  0  0  0  0  0  0
   -7.8163   10.0177  -11.7563 C   0  0  0  0  0  0  0  0  0  0  0  0
   -7.2425   10.6185  -10.6022 C   0  0  0  0  0  0  0  0  0  0  0  0
   -7.6172    9.7487   -9.5090 C   0  0  0  0  0  0  0  0  0  0  0  0
   -8.2846    8.7289   -9.9848 N   0  0  0  0  0  0  0  0  0  0  0  0
   -8.4176    8.8659  -11.2967 N   0  0  0  0  0  0  0  0  0  0  0  0
   -7.3368    9.8884   -8.0257 C   0  0  0  0  0  0  0  0  0  0  0  0
   -4.4023   13.6480  -11.4578 N   0  0  0  0  0  0  0  0  0  0  0  0
   -3.4623   14.7747  -11.4948 C   0  0  0  0  0  0  0  0  0  0  0  0
   -5.5331   13.6158  -12.1961 C   0  0  0  0  0  0  0  0  0  0  0  0
   -5.8776   14.5022  -12.9731 O   0  0  0  0  0  0  0  0  0  0  0  0
   -5.9585   10.4860   -7.7354 C   0  0  0  0  0  0  0  0  0  0  0  0
   -5.8494   11.7555   -7.1596 C   0  0  0  0  0  0  0  0  0  0  0  0
   -4.5968   12.3068   -6.9148 C   0  0  0  0  0  0  0  0  0  0  0  0
   -3.4468   11.5860   -7.2370 C   0  0  0  0  0  0  0  0  0  0  0  0
   -3.5513   10.3089   -7.8057 C   0  0  0  0  0  0  0  0  0  0  0  0
   -4.8090    9.7654   -8.0523 C   0  0  0  0  0  0  0  0  0  0  0  0
   -2.0901   12.1669   -6.9801 C   0  0  0  0  0  0  0  0  0  0  0  0
   -1.7479   13.4121   -6.4872 C   0  0  0  0  0  0  0  0  0  0  0  0
   -0.3990   13.4663   -6.4328 N   0  0  0  0  0  0  0  0  0  0  0  0
    0.1869   12.3691   -6.8386 N   0  0  0  0  0  0  0  0  0  0  0  0
   -0.8034   11.5628   -7.1902 C   0  0  0  0  0  0  0  0  0  0  0  0
    0.4389   14.5894   -5.9640 C   0  0  0  0  0  0  0  0  0  0  0  0
    1.5042   14.2139   -4.8744 C   0  0  0  0  0  0  0  0  0  0  0  0
    2.6302   13.6295   -5.4977 O   0  0  0  0  0  0  0  0  0  0  0  0
    0.9501   13.1612   -3.9053 C   0  0  0  0  0  0  0  0  0  0  0  0
    2.0179   15.4484   -4.1037 C   0  0  0  0  0  0  0  0  0  0  0  0
   -6.0641   12.2854   -9.8782 H   0  0  0  0  0  0  0  0  0  0  0  0
   -8.7448   10.7898  -13.3757 H   0  0  0  0  0  0  0  0  0  0  0  0
   -7.2513    9.8419  -13.6878 H   0  0  0  0  0  0  0  0  0  0  0  0
   -7.6795   12.5319  -13.5364 H   0  0  0  0  0  0  0  0  0  0  0  0
   -6.1895   11.5845  -13.8665 H   0  0  0  0  0  0  0  0  0  0  0  0
   -8.0357    9.5970   -7.2556 H   0  0  0  0  0  0  0  0  0  0  0  0
   -4.1971   12.8720  -10.8613 H   0  0  0  0  0  0  0  0  0  0  0  0
   -2.6221   14.5745  -10.8136 H   0  0  0  0  0  0  0  0  0  0  0  0
   -3.0817   14.9010  -12.5191 H   0  0  0  0  0  0  0  0  0  0  0  0
   -3.9787   15.6934  -11.1797 H   0  0  0  0  0  0  0  0  0  0  0  0
   -6.7407   12.3094   -6.9043 H   0  0  0  0  0  0  0  0  0  0  0  0
   -4.5143   13.2904   -6.4764 H   0  0  0  0  0  0  0  0  0  0  0  0
   -2.6607    9.7496   -8.0512 H   0  0  0  0  0  0  0  0  0  0  0  0
   -4.8939    8.7820   -8.4907 H   0  0  0  0  0  0  0  0  0  0  0  0
   -2.4321   14.1965   -6.1989 H   0  0  0  0  0  0  0  0  0  0  0  0
   -0.6606   10.5688   -7.5878 H   0  0  0  0  0  0  0  0  0  0  0  0
    0.9713   15.0036   -6.8329 H   0  0  0  0  0  0  0  0  0  0  0  0
   -0.2256   15.3572   -5.5409 H   0  0  0  0  0  0  0  0  0  0  0  0
    3.2752   13.4021   -4.8384 H   0  0  0  0  0  0  0  0  0  0  0  0
    1.7145   12.9160   -3.1533 H   0  0  0  0  0  0  0  0  0  0  0  0
    0.0563   13.5598   -3.4030 H   0  0  0  0  0  0  0  0  0  0  0  0
    0.6818   12.2530   -4.4649 H   0  0  0  0  0  0  0  0  0  0  0  0
    2.7591   15.1317   -3.3552 H   0  0  0  0  0  0  0  0  0  0  0  0
    2.4859   16.1517   -4.8082 H   0  0  0  0  0  0  0  0  0  0  0  0
    1.1747   15.9421   -3.5985 H   0  0  0  0  0  0  0  0  0  0  0  0
  1  2  2  0  0  0  0
  1  4  1  0  0  0  0
  1 13  1  0  0  0  0
  2  6  1  0  0  0  0
  3  4  1  0  0  0  0
  3  5  1  0  0  0  0
  5  6  2  0  0  0  0
  5  9  1  0  0  0  0
  6  7  1  0  0  0  0
  7  8  1  0  0  0  0
  7 10  2  3  0  0  0
  8  9  2  0  0  0  0
 10 15  1  0  0  0  0
 11 12  1  0  0  0  0
 11 13  1  0  0  0  0
 13 14  2  0  0  0  0
 15 16  2  0  0  0  0
 15 20  1  0  0  0  0
 16 17  1  0  0  0  0
 17 18  2  0  0  0  0
 18 19  1  0  0  0  0
 18 21  1  0  0  0  0
 19 20  2  0  0  0  0
 21 22  2  0  0  0  0
 21 25  1  0  0  0  0
 22 23  1  0  0  0  0
 23 24  1  0  0  0  0
 23 26  1  0  0  0  0
 24 25  2  0  0  0  0
 26 27  1  0  0  0  0
 27 28  1  0  0  0  0
 27 29  1  0  0  0  0
 27 30  1  0  0  0  0
  2 31  1  0  0  0  0
  3 32  1  0  0  0  0
  3 33  1  0  0  0  0
  4 34  1  0  0  0  0
  4 35  1  0  0  0  0
 10 36  1  0  0  0  0
 11 37  1  0  0  0  0
 12 38  1  0  0  0  0
 12 39  1  0  0  0  0
 12 40  1  0  0  0  0
 16 41  1  0  0  0  0
 17 42  1  0  0  0  0
 19 43  1  0  0  0  0
 20 44  1  0  0  0  0
 22 45  1  0  0  0  0
 25 46  1  0  0  0  0
 26 47  1  0  0  0  0
 26 48  1  0  0  0  0
 28 49  1  0  0  0  0
 29 50  1  0  0  0  0
 29 51  1  0  0  0  0
 29 52  1  0  0  0  0
 30 53  1  0  0  0  0
 30 54  1  0  0  0  0
 30 55  1  0  0  0  0
M  END
> <Name>
20

> <IC50[uM]>
0.016

$$$$
20
  -OEChem-05192314333D
 Structure written by MMmdl.
 55 58  0     1  0  0  0  0  0999 V2000
   -6.3740   12.3524  -12.0161 C   0  0  0  0  0  0  0  0  0  0  0  0
   -6.5100   11.8065  -10.7374 C   0  0  0  0  0  0  0  0  0  0  0  0
   -7.7222   10.5841  -13.0265 C   0  0  0  0  0  0  0  0  0  0  0  0
   -6.9887   11.7756  -13.1353 C   0  0  0  0  0  0  0  0  0  0  0  0
   -7.8163   10.0177  -11.7563 C   0  0  0  0  0  0  0  0  0  0  0  0
   -7.2425   10.6185  -10.6022 C   0  0  0  0  0  0  0  0  0  0  0  0
   -7.6172    9.7487   -9.5090 C   0  0  0  0  0  0  0  0  0  0  0  0
   -8.2846    8.7289   -9.9848 N   0  0  0  0  0  0  0  0  0  0  0  0
   -8.4176    8.8659  -11.2967 N   0  0  0  0  0  0  0  0  0  0  0  0
   -7.3368    9.8884   -8.0257 C   0  0  0  0  0  0  0  0  0  0  0  0
   -4.4023   13.6480  -11.4578 N   0  0  0  0  0  0  0  0  0  0  0  0
   -3.4623   14.7747  -11.4948 C   0  0  0  0  0  0  0  0  0  0  0  0
   -5.5331   13.6158  -12.1961 C   0  0  0  0  0  0  0  0  0  0  0  0
   -5.8776   14.5022  -12.9731 O   0  0  0  0  0  0  0  0  0  0  0  0
   -5.9585   10.4860   -7.7354 C   0  0  3  0  0  0  0  0  0  0  0  0
   -5.8494   11.7555   -7.1596 C   0  0  0  0  0  0  0  0  0  0  0  0
   -4.5968   12.3068   -6.9148 C   0  0  0  0  0  0  0  0  0  0  0  0
   -3.4468   11.5860   -7.2370 C   0  0  0  0  0  0  0  0  0  0  0  0
   -3.5513   10.3089   -7.8057 C   0  0  0  0  0  0  0  0  0  0  0  0
   -4.8090    9.7654   -8.0523 C   0  0  0  0  0  0  0  0  0  0  0  0
   -2.0901   12.1669   -6.9801 C   0  0  0  0  0  0  0  0  0  0  0  0
   -1.7479   13.4121   -6.4872 C   0  0  0  0  0  0  0  0  0  0  0  0
   -0.3990   13.4663   -6.4328 N   0  0  0  0  0  0  0  0  0  0  0  0
    0.1869   12.3691   -6.8386 N   0  0  0  0  0  0  0  0  0  0  0  0
   -0.8034   11.5628   -7.1902 C   0  0  0  0  0  0  0  0  0  0  0  0
    0.4389   14.5894   -5.9640 C   0  0  0  0  0  0  0  0  0  0  0  0
    1.5042   14.2139   -4.8744 C   0  0  0  0  0  0  0  0  0  0  0  0
    2.6302   13.6295   -5.4977 O   0  0  0  0  0  0  0  0  0  0  0  0
    0.9501   13.1612   -3.9053 C   0  0  0  0  0  0  0  0  0  0  0  0
    2.0179   15.4484   -4.1037 C   0  0  0  0  0  0  0  0  0  0  0  0
   -6.0641   12.2854   -9.8782 H   0  0  0  0  0  0  0  0  0  0  0  0
   -8.1913   10.1279  -13.8857 H   0  0  0  0  0  0  0  0  0  0  0  0
   -6.8965   12.2561  -14.0981 H   0  0  0  0  0  0  0  0  0  0  0  0
   -8.0357    9.5970   -7.2556 H   0  0  0  0  0  0  0  0  0  0  0  0
   -4.1971   12.8720  -10.8613 H   0  0  0  0  0  0  0  0  0  0  0  0
   -2.6221   14.5745  -10.8136 H   0  0  0  0  0  0  0  0  0  0  0  0
   -3.0817   14.9010  -12.5191 H   0  0  0  0  0  0  0  0  0  0  0  0
   -3.9787   15.6934  -11.1797 H   0  0  0  0  0  0  0  0  0  0  0  0
   -5.9701   10.0308   -6.7341 H   0  0  0  0  0  0  0  0  0  0  0  0
   -6.7407   12.3094   -6.9043 H   0  0  0  0  0  0  0  0  0  0  0  0
   -4.5143   13.2904   -6.4764 H   0  0  0  0  0  0  0  0  0  0  0  0
   -2.6607    9.7496   -8.0512 H   0  0  0  0  0  0  0  0  0  0  0  0
   -4.8619    8.8217   -7.4897 H   0  0  0  0  0  0  0  0  0  0  0  0
   -4.8560    9.5526   -9.1305 H   0  0  0  0  0  0  0  0  0  0  0  0
   -2.4321   14.1965   -6.1989 H   0  0  0  0  0  0  0  0  0  0  0  0
   -0.6606   10.5688   -7.5878 H   0  0  0  0  0  0  0  0  0  0  0  0
    0.9713   15.0036   -6.8329 H   0  0  0  0  0  0  0  0  0  0  0  0
   -0.2256   15.3572   -5.5409 H   0  0  0  0  0  0  0  0  0  0  0  0
    3.2752   13.4021   -4.8384 H   0  0  0  0  0  0  0  0  0  0  0  0
    1.7145   12.9160   -3.1533 H   0  0  0  0  0  0  0  0  0  0  0  0
    0.0563   13.5598   -3.4030 H   0  0  0  0  0  0  0  0  0  0  0  0
    0.6818   12.2530   -4.4649 H   0  0  0  0  0  0  0  0  0  0  0  0
    2.7591   15.1317   -3.3552 H   0  0  0  0  0  0  0  0  0  0  0  0
    2.4859   16.1517   -4.8082 H   0  0  0  0  0  0  0  0  0  0  0  0
    1.1747   15.9421   -3.5985 H   0  0  0  0  0  0  0  0  0  0  0  0
  1  2  2  0  0  0  0
  1  4  1  0  0  0  0
  1 13  1  0  0  0  0
  2  6  1  0  0  0  0
  3  4  2  0  0  0  0
  3  5  1  0  0  0  0
  5  6  2  0  0  0  0
  5  9  1  0  0  0  0
  6  7  1  0  0  0  0
  7  8  1  0  0  0  0
  7 10  2  3  0  0  0
  8  9  2  0  0  0  0
 10 15  1  0  0  0  0
 11 12  1  0  0  0  0
 11 13  1  0  0  0  0
 13 14  2  0  0  0  0
 15 16  1  0  0  0  0
 15 20  1  0  0  0  0
 16 17  2  0  0  0  0
 17 18  1  0  0  0  0
 18 19  2  0  0  0  0
 18 21  1  0  0  0  0
 19 20  1  0  0  0  0
 21 22  2  0  0  0  0
 21 25  1  0  0  0  0
 22 23  1  0  0  0  0
 23 24  1  0  0  0  0
 23 26  1  0  0  0  0
 24 25  2  0  0  0  0
 26 27  1  0  0  0  0
 27 28  1  0  0  0  0
 27 29  1  0  0  0  0
 27 30  1  0  0  0  0
  2 31  1  0  0  0  0
  3 32  1  0  0  0  0
  4 33  1  0  0  0  0
 10 34  1  0  0  0  0
 11 35  1  0  0  0  0
 12 36  1  0  0  0  0
 12 37  1  0  0  0  0
 12 38  1  0  0  0  0
 15 39  1  0  0  0  0
 16 40  1  0  0  0  0
 17 41  1  0  0  0  0
 19 42  1  0  0  0  0
 20 43  1  0  0  0  0
 20 44  1  0  0  0  0
 22 45  1  0  0  0  0
 25 46  1  0  0  0  0
 26 47  1  0  0  0  0
 26 48  1  0  0  0  0
 28 49  1  0  0  0  0
 29 50  1  0  0  0  0
 29 51  1  0  0  0  0
 29 52  1  0  0  0  0
 30 53  1  0  0  0  0
 30 54  1  0  0  0  0
 30 55  1  0  0  0  0
M  END
> <Name>
20

> <IC50[uM]>
0.016

$$$$
20
  -OEChem-05192314333D
 Structure written by MMmdl.
 55 58  0     1  0  0  0  0  0999 V2000
   -6.3740   12.3524  -12.0161 C   0  0  0  0  0  0  0  0  0  0  0  0
   -6.5100   11.8065  -10.7374 C   0  0  0  0  0  0  0  0  0  0  0  0
   -7.7222   10.5841  -13.0265 C   0  0  0  0  0  0  0  0  0  0  0  0
   -6.9887   11.7756  -13.1353 C   0  0  0  0  0  0  0  0  0  0  0  0
   -7.8163   10.0177  -11.7563 C   0  0  0  0  0  0  0  0  0  0  0  0
   -7.2425   10.6185  -10.6022 C   0  0  0  0  0  0  0  0  0  0  0  0
   -7.6172    9.7487   -9.5090 C   0  0  3  0  0  0  0  0  0  0  0  0
   -8.2846    8.7289   -9.9848 N   0  0  0  0  0  0  0  0  0  0  0  0
   -8.4176    8.8659  -11.2967 N   0  0  0  0  0  0  0  0  0  0  0  0
   -7.3368    9.8884   -8.0257 C   0  0  0  0  0  0  0  0  0  0  0  0
   -4.4023   13.6480  -11.4578 N   0  0  0  0  0  0  0  0  0  0  0  0
   -3.4623   14.7747  -11.4948 C   0  0  0  0  0  0  0  0  0  0  0  0
   -5.5331   13.6158  -12.1961 C   0  0  0  0  0  0  0  0  0  0  0  0
   -5.8776   14.5022  -12.9731 O   0  0  0  0  0  0  0  0  0  0  0  0
   -5.9585   10.4860   -7.7354 C   0  0  0  0  0  0  0  0  0  0  0  0
   -5.8494   11.7555   -7.1596 C   0  0  0  0  0  0  0  0  0  0  0  0
   -4.5968   12.3068   -6.9148 C   0  0  0  0  0  0  0  0  0  0  0  0
   -3.4468   11.5860   -7.2370 C   0  0  0  0  0  0  0  0  0  0  0  0
   -3.5513   10.3089   -7.8057 C   0  0  0  0  0  0  0  0  0  0  0  0
   -4.8090    9.7654   -8.0523 C   0  0  0  0  0  0  0  0  0  0  0  0
   -2.0901   12.1669   -6.9801 C   0  0  0  0  0  0  0  0  0  0  0  0
   -1.7479   13.4121   -6.4872 C   0  0  0  0  0  0  0  0  0  0  0  0
   -0.3990   13.4663   -6.4328 N   0  0  0  0  0  0  0  0  0  0  0  0
    0.1869   12.3691   -6.8386 N   0  0  0  0  0  0  0  0  0  0  0  0
   -0.8034   11.5628   -7.1902 C   0  0  0  0  0  0  0  0  0  0  0  0
    0.4389   14.5894   -5.9640 C   0  0  0  0  0  0  0  0  0  0  0  0
    1.5042   14.2139   -4.8744 C   0  0  0  0  0  0  0  0  0  0  0  0
    2.6302   13.6295   -5.4977 O   0  0  0  0  0  0  0  0  0  0  0  0
    0.9501   13.1612   -3.9053 C   0  0  0  0  0  0  0  0  0  0  0  0
    2.0179   15.4484   -4.1037 C   0  0  0  0  0  0  0  0  0  0  0  0
   -6.0641   12.2854   -9.8782 H   0  0  0  0  0  0  0  0  0  0  0  0
   -8.1913   10.1279  -13.8857 H   0  0  0  0  0  0  0  0  0  0  0  0
   -6.8965   12.2561  -14.0981 H   0  0  0  0  0  0  0  0  0  0  0  0
   -8.5567   10.3073   -9.3851 H   0  0  0  0  0  0  0  0  0  0  0  0
   -8.0357    9.5970   -7.2556 H   0  0  0  0  0  0  0  0  0  0  0  0
   -4.1971   12.8720  -10.8613 H   0  0  0  0  0  0  0  0  0  0  0  0
   -2.6221   14.5745  -10.8136 H   0  0  0  0  0  0  0  0  0  0  0  0
   -3.0817   14.9010  -12.5191 H   0  0  0  0  0  0  0  0  0  0  0  0
   -3.9787   15.6934  -11.1797 H   0  0  0  0  0  0  0  0  0  0  0  0
   -6.7407   12.3094   -6.9043 H   0  0  0  0  0  0  0  0  0  0  0  0
   -4.5143   13.2904   -6.4764 H   0  0  0  0  0  0  0  0  0  0  0  0
   -2.6607    9.7496   -8.0512 H   0  0  0  0  0  0  0  0  0  0  0  0
   -4.8619    8.8217   -7.4897 H   0  0  0  0  0  0  0  0  0  0  0  0
   -4.8560    9.5526   -9.1305 H   0  0  0  0  0  0  0  0  0  0  0  0
   -2.4321   14.1965   -6.1989 H   0  0  0  0  0  0  0  0  0  0  0  0
   -0.6606   10.5688   -7.5878 H   0  0  0  0  0  0  0  0  0  0  0  0
    0.9713   15.0036   -6.8329 H   0  0  0  0  0  0  0  0  0  0  0  0
   -0.2256   15.3572   -5.5409 H   0  0  0  0  0  0  0  0  0  0  0  0
    3.2752   13.4021   -4.8384 H   0  0  0  0  0  0  0  0  0  0  0  0
    1.7145   12.9160   -3.1533 H   0  0  0  0  0  0  0  0  0  0  0  0
    0.0563   13.5598   -3.4030 H   0  0  0  0  0  0  0  0  0  0  0  0
    0.6818   12.2530   -4.4649 H   0  0  0  0  0  0  0  0  0  0  0  0
    2.7591   15.1317   -3.3552 H   0  0  0  0  0  0  0  0  0  0  0  0
    2.4859   16.1517   -4.8082 H   0  0  0  0  0  0  0  0  0  0  0  0
    1.1747   15.9421   -3.5985 H   0  0  0  0  0  0  0  0  0  0  0  0
  1  2  2  0  0  0  0
  1  4  1  0  0  0  0
  1 13  1  0  0  0  0
  2  6  1  0  0  0  0
  3  4  2  0  0  0  0
  3  5  1  0  0  0  0
  5  6  2  0  0  0  0
  5  9  1  0  0  0  0
  6  7  1  0  0  0  0
  7  8  1  0  0  0  0
  7 10  1  0  0  0  0
  8  9  2  0  0  0  0
 10 15  2  3  0  0  0
 11 12  1  0  0  0  0
 11 13  1  0  0  0  0
 13 14  2  0  0  0  0
 15 16  1  0  0  0  0
 15 20  1  0  0  0  0
 16 17  2  0  0  0  0
 17 18  1  0  0  0  0
 18 19  2  0  0  0  0
 18 21  1  0  0  0  0
 19 20  1  0  0  0  0
 21 22  2  0  0  0  0
 21 25  1  0  0  0  0
 22 23  1  0  0  0  0
 23 24  1  0  0  0  0
 23 26  1  0  0  0  0
 24 25  2  0  0  0  0
 26 27  1  0  0  0  0
 27 28  1  0  0  0  0
 27 29  1  0  0  0  0
 27 30  1  0  0  0  0
  2 31  1  0  0  0  0
  3 32  1  0  0  0  0
  4 33  1  0  0  0  0
  7 34  1  0  0  0  0
 10 35  1  0  0  0  0
 11 36  1  0  0  0  0
 12 37  1  0  0  0  0
 12 38  1  0  0  0  0
 12 39  1  0  0  0  0
 16 40  1  0  0  0  0
 17 41  1  0  0  0  0
 19 42  1  0  0  0  0
 20 43  1  0  0  0  0
 20 44  1  0  0  0  0
 22 45  1  0  0  0  0
 25 46  1  0  0  0  0
 26 47  1  0  0  0  0
 26 48  1  0  0  0  0
 28 49  1  0  0  0  0
 29 50  1  0  0  0  0
 29 51  1  0  0  0  0
 29 52  1  0  0  0  0
 30 53  1  0  0  0  0
 30 54  1  0  0  0  0
 30 55  1  0  0  0  0
M  END
> <Name>
20

> <IC50[uM]>
0.016

$$$$
20
  -OEChem-05192314333D
 Structure written by MMmdl.
 55 58  0     0  0  0  0  0  0999 V2000
   -6.3740   12.3524  -12.0161 C   0  0  0  0  0  0  0  0  0  0  0  0
   -6.5100   11.8065  -10.7374 C   0  0  0  0  0  0  0  0  0  0  0  0
   -7.7222   10.5841  -13.0265 C   0  0  0  0  0  0  0  0  0  0  0  0
   -6.9887   11.7756  -13.1353 C   0  0  0  0  0  0  0  0  0  0  0  0
   -7.8163   10.0177  -11.7563 C   0  0  0  0  0  0  0  0  0  0  0  0
   -7.2425   10.6185  -10.6022 C   0  0  0  0  0  0  0  0  0  0  0  0
   -7.6172    9.7487   -9.5090 C   0  0  0  0  0  0  0  0  0  0  0  0
   -8.2846    8.7289   -9.9848 N   0  0  0  0  0  0  0  0  0  0  0  0
   -8.4176    8.8659  -11.2967 N   0  0  0  0  0  0  0  0  0  0  0  0
   -7.3368    9.8884   -8.0257 C   0  0  0  0  0  0  0  0  0  0  0  0
   -4.4023   13.6480  -11.4578 N   0  0  0  0  0  0  0  0  0  0  0  0
   -3.4623   14.7747  -11.4948 C   0  0  0  0  0  0  0  0  0  0  0  0
   -5.5331   13.6158  -12.1961 C   0  0  0  0  0  0  0  0  0  0  0  0
   -5.8776   14.5022  -12.9731 O   0  0  0  0  0  0  0  0  0  0  0  0
   -5.9585   10.4860   -7.7354 C   0  0  0  0  0  0  0  0  0  0  0  0
   -5.8494   11.7555   -7.1596 C   0  0  0  0  0  0  0  0  0  0  0  0
   -4.5968   12.3068   -6.9148 C   0  0  0  0  0  0  0  0  0  0  0  0
   -3.4468   11.5860   -7.2370 C   0  0  0  0  0  0  0  0  0  0  0  0
   -3.5513   10.3089   -7.8057 C   0  0  0  0  0  0  0  0  0  0  0  0
   -4.8090    9.7654   -8.0523 C   0  0  0  0  0  0  0  0  0  0  0  0
   -2.0901   12.1669   -6.9801 C   0  0  0  0  0  0  0  0  0  0  0  0
   -1.7479   13.4121   -6.4872 C   0  0  0  0  0  0  0  0  0  0  0  0
   -0.3990   13.4663   -6.4328 N   0  0  0  0  0  0  0  0  0  0  0  0
    0.1869   12.3691   -6.8386 N   0  0  0  0  0  0  0  0  0  0  0  0
   -0.8034   11.5628   -7.1902 C   0  0  0  0  0  0  0  0  0  0  0  0
    0.4389   14.5894   -5.9640 C   0  0  0  0  0  0  0  0  0  0  0  0
    1.5042   14.2139   -4.8744 C   0  0  0  0  0  0  0  0  0  0  0  0
    2.6302   13.6295   -5.4977 O   0  0  0  0  0  0  0  0  0  0  0  0
    0.9501   13.1612   -3.9053 C   0  0  0  0  0  0  0  0  0  0  0  0
    2.0179   15.4484   -4.1037 C   0  0  0  0  0  0  0  0  0  0  0  0
   -6.0641   12.2854   -9.8782 H   0  0  0  0  0  0  0  0  0  0  0  0
   -8.1913   10.1279  -13.8857 H   0  0  0  0  0  0  0  0  0  0  0  0
   -6.8965   12.2561  -14.0981 H   0  0  0  0  0  0  0  0  0  0  0  0
   -8.0357    9.5970   -7.2556 H   0  0  0  0  0  0  0  0  0  0  0  0
   -4.1971   12.8720  -10.8613 H   0  0  0  0  0  0  0  0  0  0  0  0
   -2.6221   14.5745  -10.8136 H   0  0  0  0  0  0  0  0  0  0  0  0
   -3.0817   14.9010  -12.5191 H   0  0  0  0  0  0  0  0  0  0  0  0
   -3.9787   15.6934  -11.1797 H   0  0  0  0  0  0  0  0  0  0  0  0
   -6.7407   12.3094   -6.9043 H   0  0  0  0  0  0  0  0  0  0  0  0
   -4.5489   13.2509   -7.4773 H   0  0  0  0  0  0  0  0  0  0  0  0
   -4.5477   12.5195   -5.8367 H   0  0  0  0  0  0  0  0  0  0  0  0
   -2.6607    9.7496   -8.0512 H   0  0  0  0  0  0  0  0  0  0  0  0
   -4.8619    8.8217   -7.4897 H   0  0  0  0  0  0  0  0  0  0  0  0
   -4.8560    9.5526   -9.1305 H   0  0  0  0  0  0  0  0  0  0  0  0
   -2.4321   14.1965   -6.1989 H   0  0  0  0  0  0  0  0  0  0  0  0
   -0.6606   10.5688   -7.5878 H   0  0  0  0  0  0  0  0  0  0  0  0
    0.9713   15.0036   -6.8329 H   0  0  0  0  0  0  0  0  0  0  0  0
   -0.2256   15.3572   -5.5409 H   0  0  0  0  0  0  0  0  0  0  0  0
    3.2752   13.4021   -4.8384 H   0  0  0  0  0  0  0  0  0  0  0  0
    1.7145   12.9160   -3.1533 H   0  0  0  0  0  0  0  0  0  0  0  0
    0.0563   13.5598   -3.4030 H   0  0  0  0  0  0  0  0  0  0  0  0
    0.6818   12.2530   -4.4649 H   0  0  0  0  0  0  0  0  0  0  0  0
    2.7591   15.1317   -3.3552 H   0  0  0  0  0  0  0  0  0  0  0  0
    2.4859   16.1517   -4.8082 H   0  0  0  0  0  0  0  0  0  0  0  0
    1.1747   15.9421   -3.5985 H   0  0  0  0  0  0  0  0  0  0  0  0
  1  2  2  0  0  0  0
  1  4  1  0  0  0  0
  1 13  1  0  0  0  0
  2  6  1  0  0  0  0
  3  4  2  0  0  0  0
  3  5  1  0  0  0  0
  5  6  2  0  0  0  0
  5  9  1  0  0  0  0
  6  7  1  0  0  0  0
  7  8  1  0  0  0  0
  7 10  2  3  0  0  0
  8  9  2  0  0  0  0
 10 15  1  0  0  0  0
 11 12  1  0  0  0  0
 11 13  1  0  0  0  0
 13 14  2  0  0  0  0
 15 16  2  0  0  0  0
 15 20  1  0  0  0  0
 16 17  1  0  0  0  0
 17 18  1  0  0  0  0
 18 19  2  0  0  0  0
 18 21  1  0  0  0  0
 19 20  1  0  0  0  0
 21 22  2  0  0  0  0
 21 25  1  0  0  0  0
 22 23  1  0  0  0  0
 23 24  1  0  0  0  0
 23 26  1  0  0  0  0
 24 25  2  0  0  0  0
 26 27  1  0  0  0  0
 27 28  1  0  0  0  0
 27 29  1  0  0  0  0
 27 30  1  0  0  0  0
  2 31  1  0  0  0  0
  3 32  1  0  0  0  0
  4 33  1  0  0  0  0
 10 34  1  0  0  0  0
 11 35  1  0  0  0  0
 12 36  1  0  0  0  0
 12 37  1  0  0  0  0
 12 38  1  0  0  0  0
 16 39  1  0  0  0  0
 17 40  1  0  0  0  0
 17 41  1  0  0  0  0
 19 42  1  0  0  0  0
 20 43  1  0  0  0  0
 20 44  1  0  0  0  0
 22 45  1  0  0  0  0
 25 46  1  0  0  0  0
 26 47  1  0  0  0  0
 26 48  1  0  0  0  0
 28 49  1  0  0  0  0
 29 50  1  0  0  0  0
 29 51  1  0  0  0  0
 29 52  1  0  0  0  0
 30 53  1  0  0  0  0
 30 54  1  0  0  0  0
 30 55  1  0  0  0  0
M  END
> <Name>
20

> <IC50[uM]>
0.016

$$$$
20
  -OEChem-05192314333D
 Structure written by MMmdl.
 55 58  0     0  0  0  0  0  0999 V2000
   -6.3740   12.3524  -12.0161 C   0  0  0  0  0  0  0  0  0  0  0  0
   -6.5100   11.8065  -10.7374 C   0  0  0  0  0  0  0  0  0  0  0  0
   -7.7222   10.5841  -13.0265 C   0  0  0  0  0  0  0  0  0  0  0  0
   -6.9887   11.7756  -13.1353 C   0  0  0  0  0  0  0  0  0  0  0  0
   -7.8163   10.0177  -11.7563 C   0  0  0  0  0  0  0  0  0  0  0  0
   -7.2425   10.6185  -10.6022 C   0  0  0  0  0  0  0  0  0  0  0  0
   -7.6172    9.7487   -9.5090 C   0  0  0  0  0  0  0  0  0  0  0  0
   -8.2846    8.7289   -9.9848 N   0  0  0  0  0  0  0  0  0  0  0  0
   -8.4176    8.8659  -11.2967 N   0  0  0  0  0  0  0  0  0  0  0  0
   -7.3368    9.8884   -8.0257 C   0  0  0  0  0  0  0  0  0  0  0  0
   -4.4023   13.6480  -11.4578 N   0  0  0  0  0  0  0  0  0  0  0  0
   -3.4623   14.7747  -11.4948 C   0  0  0  0  0  0  0  0  0  0  0  0
   -5.5331   13.6158  -12.1961 C   0  0  0  0  0  0  0  0  0  0  0  0
   -5.8776   14.5022  -12.9731 O   0  0  0  0  0  0  0  0  0  0  0  0
   -5.9585   10.4860   -7.7354 C   0  0  0  0  0  0  0  0  0  0  0  0
   -5.8494   11.7555   -7.1596 C   0  0  0  0  0  0  0  0  0  0  0  0
   -4.5968   12.3068   -6.9148 C   0  0  0  0  0  0  0  0  0  0  0  0
   -3.4468   11.5860   -7.2370 C   0  0  0  0  0  0  0  0  0  0  0  0
   -3.5513   10.3089   -7.8057 C   0  0  0  0  0  0  0  0  0  0  0  0
   -4.8090    9.7654   -8.0523 C   0  0  0  0  0  0  0  0  0  0  0  0
   -2.0901   12.1669   -6.9801 C   0  0  0  0  0  0  0  0  0  0  0  0
   -1.7479   13.4121   -6.4872 C   0  0  0  0  0  0  0  0  0  0  0  0
   -0.3990   13.4663   -6.4328 N   0  0  0  0  0  0  0  0  0  0  0  0
    0.1869   12.3691   -6.8386 N   0  0  0  0  0  0  0  0  0  0  0  0
   -0.8034   11.5628   -7.1902 C   0  0  0  0  0  0  0  0  0  0  0  0
    0.4389   14.5894   -5.9640 C   0  0  0  0  0  0  0  0  0  0  0  0
    1.5042   14.2139   -4.8744 C   0  0  0  0  0  0  0  0  0  0  0  0
    2.6302   13.6295   -5.4977 O   0  0  0  0  0  0  0  0  0  0  0  0
    0.9501   13.1612   -3.9053 C   0  0  0  0  0  0  0  0  0  0  0  0
    2.0179   15.4484   -4.1037 C   0  0  0  0  0  0  0  0  0  0  0  0
   -6.0641   12.2854   -9.8782 H   0  0  0  0  0  0  0  0  0  0  0  0
   -8.1913   10.1279  -13.8857 H   0  0  0  0  0  0  0  0  0  0  0  0
   -6.8965   12.2561  -14.0981 H   0  0  0  0  0  0  0  0  0  0  0  0
   -8.0357    9.5970   -7.2556 H   0  0  0  0  0  0  0  0  0  0  0  0
   -4.1971   12.8720  -10.8613 H   0  0  0  0  0  0  0  0  0  0  0  0
   -2.6221   14.5745  -10.8136 H   0  0  0  0  0  0  0  0  0  0  0  0
   -3.0817   14.9010  -12.5191 H   0  0  0  0  0  0  0  0  0  0  0  0
   -3.9787   15.6934  -11.1797 H   0  0  0  0  0  0  0  0  0  0  0  0
   -6.7407   12.3094   -6.9043 H   0  0  0  0  0  0  0  0  0  0  0  0
   -4.5143   13.2904   -6.4764 H   0  0  0  0  0  0  0  0  0  0  0  0
   -3.0245   10.3451   -8.7707 H   0  0  0  0  0  0  0  0  0  0  0  0
   -3.0307    9.6148   -7.1295 H   0  0  0  0  0  0  0  0  0  0  0  0
   -4.8619    8.8217   -7.4897 H   0  0  0  0  0  0  0  0  0  0  0  0
   -4.8560    9.5526   -9.1305 H   0  0  0  0  0  0  0  0  0  0  0  0
   -2.4321   14.1965   -6.1989 H   0  0  0  0  0  0  0  0  0  0  0  0
   -0.6606   10.5688   -7.5878 H   0  0  0  0  0  0  0  0  0  0  0  0
    0.9713   15.0036   -6.8329 H   0  0  0  0  0  0  0  0  0  0  0  0
   -0.2256   15.3572   -5.5409 H   0  0  0  0  0  0  0  0  0  0  0  0
    3.2752   13.4021   -4.8384 H   0  0  0  0  0  0  0  0  0  0  0  0
    1.7145   12.9160   -3.1533 H   0  0  0  0  0  0  0  0  0  0  0  0
    0.0563   13.5598   -3.4030 H   0  0  0  0  0  0  0  0  0  0  0  0
    0.6818   12.2530   -4.4649 H   0  0  0  0  0  0  0  0  0  0  0  0
    2.7591   15.1317   -3.3552 H   0  0  0  0  0  0  0  0  0  0  0  0
    2.4859   16.1517   -4.8082 H   0  0  0  0  0  0  0  0  0  0  0  0
    1.1747   15.9421   -3.5985 H   0  0  0  0  0  0  0  0  0  0  0  0
  1  2  2  0  0  0  0
  1  4  1  0  0  0  0
  1 13  1  0  0  0  0
  2  6  1  0  0  0  0
  3  4  2  0  0  0  0
  3  5  1  0  0  0  0
  5  6  2  0  0  0  0
  5  9  1  0  0  0  0
  6  7  1  0  0  0  0
  7  8  1  0  0  0  0
  7 10  2  3  0  0  0
  8  9  2  0  0  0  0
 10 15  1  0  0  0  0
 11 12  1  0  0  0  0
 11 13  1  0  0  0  0
 13 14  2  0  0  0  0
 15 16  2  0  0  0  0
 15 20  1  0  0  0  0
 16 17  1  0  0  0  0
 17 18  2  0  0  0  0
 18 19  1  0  0  0  0
 18 21  1  0  0  0  0
 19 20  1  0  0  0  0
 21 22  2  0  0  0  0
 21 25  1  0  0  0  0
 22 23  1  0  0  0  0
 23 24  1  0  0  0  0
 23 26  1  0  0  0  0
 24 25  2  0  0  0  0
 26 27  1  0  0  0  0
 27 28  1  0  0  0  0
 27 29  1  0  0  0  0
 27 30  1  0  0  0  0
  2 31  1  0  0  0  0
  3 32  1  0  0  0  0
  4 33  1  0  0  0  0
 10 34  1  0  0  0  0
 11 35  1  0  0  0  0
 12 36  1  0  0  0  0
 12 37  1  0  0  0  0
 12 38  1  0  0  0  0
 16 39  1  0  0  0  0
 17 40  1  0  0  0  0
 19 41  1  0  0  0  0
 19 42  1  0  0  0  0
 20 43  1  0  0  0  0
 20 44  1  0  0  0  0
 22 45  1  0  0  0  0
 25 46  1  0  0  0  0
 26 47  1  0  0  0  0
 26 48  1  0  0  0  0
 28 49  1  0  0  0  0
 29 50  1  0  0  0  0
 29 51  1  0  0  0  0
 29 52  1  0  0  0  0
 30 53  1  0  0  0  0
 30 54  1  0  0  0  0
 30 55  1  0  0  0  0
M  END
> <Name>
20

> <IC50[uM]>
0.016

$$$$
20
  -OEChem-05192314333D
 Structure written by MMmdl.
 55 58  0     1  0  0  0  0  0999 V2000
   -6.3740   12.3524  -12.0161 C   0  0  3  0  0  0  0  0  0  0  0  0
   -6.5100   11.8065  -10.7374 C   0  0  0  0  0  0  0  0  0  0  0  0
   -7.7222   10.5841  -13.0265 C   0  0  0  0  0  0  0  0  0  0  0  0
   -6.9887   11.7756  -13.1353 C   0  0  0  0  0  0  0  0  0  0  0  0
   -7.8163   10.0177  -11.7563 C   0  0  0  0  0  0  0  0  0  0  0  0
   -7.2425   10.6185  -10.6022 C   0  0  0  0  0  0  0  0  0  0  0  0
   -7.6172    9.7487   -9.5090 C   0  0  0  0  0  0  0  0  0  0  0  0
   -8.2846    8.7289   -9.9848 N   0  0  0  0  0  0  0  0  0  0  0  0
   -8.4176    8.8659  -11.2967 N   0  0  0  0  0  0  0  0  0  0  0  0
   -7.3368    9.8884   -8.0257 C   0  0  0  0  0  0  0  0  0  0  0  0
   -4.4023   13.6480  -11.4578 N   0  0  0  0  0  0  0  0  0  0  0  0
   -3.4623   14.7747  -11.4948 C   0  0  0  0  0  0  0  0  0  0  0  0
   -5.5331   13.6158  -12.1961 C   0  0  0  0  0  0  0  0  0  0  0  0
   -5.8776   14.5022  -12.9731 O   0  0  0  0  0  0  0  0  0  0  0  0
   -5.9585   10.4860   -7.7354 C   0  0  0  0  0  0  0  0  0  0  0  0
   -5.8494   11.7555   -7.1596 C   0  0  0  0  0  0  0  0  0  0  0  0
   -4.5968   12.3068   -6.9148 C   0  0  0  0  0  0  0  0  0  0  0  0
   -3.4468   11.5860   -7.2370 C   0  0  0  0  0  0  0  0  0  0  0  0
   -3.5513   10.3089   -7.8057 C   0  0  0  0  0  0  0  0  0  0  0  0
   -4.8090    9.7654   -8.0523 C   0  0  0  0  0  0  0  0  0  0  0  0
   -2.0901   12.1669   -6.9801 C   0  0  0  0  0  0  0  0  0  0  0  0
   -1.7479   13.4121   -6.4872 C   0  0  0  0  0  0  0  0  0  0  0  0
   -0.3990   13.4663   -6.4328 N   0  0  0  0  0  0  0  0  0  0  0  0
    0.1869   12.3691   -6.8386 N   0  0  0  0  0  0  0  0  0  0  0  0
   -0.8034   11.5628   -7.1902 C   0  0  0  0  0  0  0  0  0  0  0  0
    0.4389   14.5894   -5.9640 C   0  0  0  0  0  0  0  0  0  0  0  0
    1.5042   14.2139   -4.8744 C   0  0  0  0  0  0  0  0  0  0  0  0
    2.6302   13.6295   -5.4977 O   0  0  0  0  0  0  0  0  0  0  0  0
    0.9501   13.1612   -3.9053 C   0  0  0  0  0  0  0  0  0  0  0  0
    2.0179   15.4484   -4.1037 C   0  0  0  0  0  0  0  0  0  0  0  0
   -5.4811   11.7330  -12.1864 H   0  0  0  0  0  0  0  0  0  0  0  0
   -5.4969   11.6111  -10.3560 H   0  0  0  0  0  0  0  0  0  0  0  0
   -6.9986   12.5652  -10.1084 H   0  0  0  0  0  0  0  0  0  0  0  0
   -8.1913   10.1279  -13.8857 H   0  0  0  0  0  0  0  0  0  0  0  0
   -6.8965   12.2561  -14.0981 H   0  0  0  0  0  0  0  0  0  0  0  0
   -8.0357    9.5970   -7.2556 H   0  0  0  0  0  0  0  0  0  0  0  0
   -4.1971   12.8720  -10.8613 H   0  0  0  0  0  0  0  0  0  0  0  0
   -2.6221   14.5745  -10.8136 H   0  0  0  0  0  0  0  0  0  0  0  0
   -3.0817   14.9010  -12.5191 H   0  0  0  0  0  0  0  0  0  0  0  0
   -3.9787   15.6934  -11.1797 H   0  0  0  0  0  0  0  0  0  0  0  0
   -6.7407   12.3094   -6.9043 H   0  0  0  0  0  0  0  0  0  0  0  0
   -4.5143   13.2904   -6.4764 H   0  0  0  0  0  0  0  0  0  0  0  0
   -2.6607    9.7496   -8.0512 H   0  0  0  0  0  0  0  0  0  0  0  0
   -4.8939    8.7820   -8.4907 H   0  0  0  0  0  0  0  0  0  0  0  0
   -2.4321   14.1965   -6.1989 H   0  0  0  0  0  0  0  0  0  0  0  0
   -0.6606   10.5688   -7.5878 H   0  0  0  0  0  0  0  0  0  0  0  0
    0.9713   15.0036   -6.8329 H   0  0  0  0  0  0  0  0  0  0  0  0
   -0.2256   15.3572   -5.5409 H   0  0  0  0  0  0  0  0  0  0  0  0
    3.2752   13.4021   -4.8384 H   0  0  0  0  0  0  0  0  0  0  0  0
    1.7145   12.9160   -3.1533 H   0  0  0  0  0  0  0  0  0  0  0  0
    0.0563   13.5598   -3.4030 H   0  0  0  0  0  0  0  0  0  0  0  0
    0.6818   12.2530   -4.4649 H   0  0  0  0  0  0  0  0  0  0  0  0
    2.7591   15.1317   -3.3552 H   0  0  0  0  0  0  0  0  0  0  0  0
    2.4859   16.1517   -4.8082 H   0  0  0  0  0  0  0  0  0  0  0  0
    1.1747   15.9421   -3.5985 H   0  0  0  0  0  0  0  0  0  0  0  0
  1  2  1  0  0  0  0
  1  4  1  0  0  0  0
  1 13  1  0  0  0  0
  2  6  1  0  0  0  0
  3  4  2  0  0  0  0
  3  5  1  0  0  0  0
  5  6  2  0  0  0  0
  5  9  1  0  0  0  0
  6  7  1  0  0  0  0
  7  8  1  0  0  0  0
  7 10  2  3  0  0  0
  8  9  2  0  0  0  0
 10 15  1  0  0  0  0
 11 12  1  0  0  0  0
 11 13  1  0  0  0  0
 13 14  2  0  0  0  0
 15 16  2  0  0  0  0
 15 20  1  0  0  0  0
 16 17  1  0  0  0  0
 17 18  2  0  0  0  0
 18 19  1  0  0  0  0
 18 21  1  0  0  0  0
 19 20  2  0  0  0  0
 21 22  2  0  0  0  0
 21 25  1  0  0  0  0
 22 23  1  0  0  0  0
 23 24  1  0  0  0  0
 23 26  1  0  0  0  0
 24 25  2  0  0  0  0
 26 27  1  0  0  0  0
 27 28  1  0  0  0  0
 27 29  1  0  0  0  0
 27 30  1  0  0  0  0
  1 31  1  0  0  0  0
  2 32  1  0  0  0  0
  2 33  1  0  0  0  0
  3 34  1  0  0  0  0
  4 35  1  0  0  0  0
 10 36  1  0  0  0  0
 11 37  1  0  0  0  0
 12 38  1  0  0  0  0
 12 39  1  0  0  0  0
 12 40  1  0  0  0  0
 16 41  1  0  0  0  0
 17 42  1  0  0  0  0
 19 43  1  0  0  0  0
 20 44  1  0  0  0  0
 22 45  1  0  0  0  0
 25 46  1  0  0  0  0
 26 47  1  0  0  0  0
 26 48  1  0  0  0  0
 28 49  1  0  0  0  0
 29 50  1  0  0  0  0
 29 51  1  0  0  0  0
 29 52  1  0  0  0  0
 30 53  1  0  0  0  0
 30 54  1  0  0  0  0
 30 55  1  0  0  0  0
M  END
> <Name>
20

> <IC50[uM]>
0.016

$$$$
20
  -OEChem-05192314333D
 Structure written by MMmdl.
 55 58  0     1  0  0  0  0  0999 V2000
   -6.3740   12.3524  -12.0161 C   0  0  0  0  0  0  0  0  0  0  0  0
   -6.5100   11.8065  -10.7374 C   0  0  0  0  0  0  0  0  0  0  0  0
   -7.7222   10.5841  -13.0265 C   0  0  0  0  0  0  0  0  0  0  0  0
   -6.9887   11.7756  -13.1353 C   0  0  0  0  0  0  0  0  0  0  0  0
   -7.8163   10.0177  -11.7563 C   0  0  0  0  0  0  0  0  0  0  0  0
   -7.2425   10.6185  -10.6022 C   0  0  3  0  0  0  0  0  0  0  0  0
   -7.6172    9.7487   -9.5090 C   0  0  0  0  0  0  0  0  0  0  0  0
   -8.2846    8.7289   -9.9848 N   0  0  0  0  0  0  0  0  0  0  0  0
   -8.4176    8.8659  -11.2967 N   0  0  0  0  0  0  0  0  0  0  0  0
   -7.3368    9.8884   -8.0257 C   0  0  0  0  0  0  0  0  0  0  0  0
   -4.4023   13.6480  -11.4578 N   0  0  0  0  0  0  0  0  0  0  0  0
   -3.4623   14.7747  -11.4948 C   0  0  0  0  0  0  0  0  0  0  0  0
   -5.5331   13.6158  -12.1961 C   0  0  0  0  0  0  0  0  0  0  0  0
   -5.8776   14.5022  -12.9731 O   0  0  0  0  0  0  0  0  0  0  0  0
   -5.9585   10.4860   -7.7354 C   0  0  0  0  0  0  0  0  0  0  0  0
   -5.8494   11.7555   -7.1596 C   0  0  0  0  0  0  0  0  0  0  0  0
   -4.5968   12.3068   -6.9148 C   0  0  0  0  0  0  0  0  0  0  0  0
   -3.4468   11.5860   -7.2370 C   0  0  0  0  0  0  0  0  0  0  0  0
   -3.5513   10.3089   -7.8057 C   0  0  0  0  0  0  0  0  0  0  0  0
   -4.8090    9.7654   -8.0523 C   0  0  0  0  0  0  0  0  0  0  0  0
   -2.0901   12.1669   -6.9801 C   0  0  0  0  0  0  0  0  0  0  0  0
   -1.7479   13.4121   -6.4872 C   0  0  0  0  0  0  0  0  0  0  0  0
   -0.3990   13.4663   -6.4328 N   0  0  0  0  0  0  0  0  0  0  0  0
    0.1869   12.3691   -6.8386 N   0  0  0  0  0  0  0  0  0  0  0  0
   -0.8034   11.5628   -7.1902 C   0  0  0  0  0  0  0  0  0  0  0  0
    0.4389   14.5894   -5.9640 C   0  0  0  0  0  0  0  0  0  0  0  0
    1.5042   14.2139   -4.8744 C   0  0  0  0  0  0  0  0  0  0  0  0
    2.6302   13.6295   -5.4977 O   0  0  0  0  0  0  0  0  0  0  0  0
    0.9501   13.1612   -3.9053 C   0  0  0  0  0  0  0  0  0  0  0  0
    2.0179   15.4484   -4.1037 C   0  0  0  0  0  0  0  0  0  0  0  0
   -5.4969   11.6111  -10.3560 H   0  0  0  0  0  0  0  0  0  0  0  0
   -6.9986   12.5652  -10.1084 H   0  0  0  0  0  0  0  0  0  0  0  0
   -8.1913   10.1279  -13.8857 H   0  0  0  0  0  0  0  0  0  0  0  0
   -6.8965   12.2561  -14.0981 H   0  0  0  0  0  0  0  0  0  0  0  0
   -6.3233   10.0335  -10.7537 H   0  0  0  0  0  0  0  0  0  0  0  0
   -8.0357    9.5970   -7.2556 H   0  0  0  0  0  0  0  0  0  0  0  0
   -4.1971   12.8720  -10.8613 H   0  0  0  0  0  0  0  0  0  0  0  0
   -2.6221   14.5745  -10.8136 H   0  0  0  0  0  0  0  0  0  0  0  0
   -3.0817   14.9010  -12.5191 H   0  0  0  0  0  0  0  0  0  0  0  0
   -3.9787   15.6934  -11.1797 H   0  0  0  0  0  0  0  0  0  0  0  0
   -6.7407   12.3094   -6.9043 H   0  0  0  0  0  0  0  0  0  0  0  0
   -4.5143   13.2904   -6.4764 H   0  0  0  0  0  0  0  0  0  0  0  0
   -2.6607    9.7496   -8.0512 H   0  0  0  0  0  0  0  0  0  0  0  0
   -4.8939    8.7820   -8.4907 H   0  0  0  0  0  0  0  0  0  0  0  0
   -2.4321   14.1965   -6.1989 H   0  0  0  0  0  0  0  0  0  0  0  0
   -0.6606   10.5688   -7.5878 H   0  0  0  0  0  0  0  0  0  0  0  0
    0.9713   15.0036   -6.8329 H   0  0  0  0  0  0  0  0  0  0  0  0
   -0.2256   15.3572   -5.5409 H   0  0  0  0  0  0  0  0  0  0  0  0
    3.2752   13.4021   -4.8384 H   0  0  0  0  0  0  0  0  0  0  0  0
    1.7145   12.9160   -3.1533 H   0  0  0  0  0  0  0  0  0  0  0  0
    0.0563   13.5598   -3.4030 H   0  0  0  0  0  0  0  0  0  0  0  0
    0.6818   12.2530   -4.4649 H   0  0  0  0  0  0  0  0  0  0  0  0
    2.7591   15.1317   -3.3552 H   0  0  0  0  0  0  0  0  0  0  0  0
    2.4859   16.1517   -4.8082 H   0  0  0  0  0  0  0  0  0  0  0  0
    1.1747   15.9421   -3.5985 H   0  0  0  0  0  0  0  0  0  0  0  0
  1  2  1  0  0  0  0
  1  4  2  0  0  0  0
  1 13  1  0  0  0  0
  2  6  1  0  0  0  0
  3  4  1  0  0  0  0
  3  5  2  0  0  0  0
  5  6  1  0  0  0  0
  5  9  1  0  0  0  0
  6  7  1  0  0  0  0
  7  8  1  0  0  0  0
  7 10  2  3  0  0  0
  8  9  2  0  0  0  0
 10 15  1  0  0  0  0
 11 12  1  0  0  0  0
 11 13  1  0  0  0  0
 13 14  2  0  0  0  0
 15 16  2  0  0  0  0
 15 20  1  0  0  0  0
 16 17  1  0  0  0  0
 17 18  2  0  0  0  0
 18 19  1  0  0  0  0
 18 21  1  0  0  0  0
 19 20  2  0  0  0  0
 21 22  2  0  0  0  0
 21 25  1  0  0  0  0
 22 23  1  0  0  0  0
 23 24  1  0  0  0  0
 23 26  1  0  0  0  0
 24 25  2  0  0  0  0
 26 27  1  0  0  0  0
 27 28  1  0  0  0  0
 27 29  1  0  0  0  0
 27 30  1  0  0  0  0
  2 31  1  0  0  0  0
  2 32  1  0  0  0  0
  3 33  1  0  0  0  0
  4 34  1  0  0  0  0
  6 35  1  0  0  0  0
 10 36  1  0  0  0  0
 11 37  1  0  0  0  0
 12 38  1  0  0  0  0
 12 39  1  0  0  0  0
 12 40  1  0  0  0  0
 16 41  1  0  0  0  0
 17 42  1  0  0  0  0
 19 43  1  0  0  0  0
 20 44  1  0  0  0  0
 22 45  1  0  0  0  0
 25 46  1  0  0  0  0
 26 47  1  0  0  0  0
 26 48  1  0  0  0  0
 28 49  1  0  0  0  0
 29 50  1  0  0  0  0
 29 51  1  0  0  0  0
 29 52  1  0  0  0  0
 30 53  1  0  0  0  0
 30 54  1  0  0  0  0
 30 55  1  0  0  0  0
M  END
> <Name>
20

> <IC50[uM]>
0.016

$$$$
20
  -OEChem-05192314333D
 Structure written by MMmdl.
 55 58  0     0  0  0  0  0  0999 V2000
   -6.3740   12.3524  -12.0161 C   0  0  0  0  0  0  0  0  0  0  0  0
   -6.5100   11.8065  -10.7374 C   0  0  0  0  0  0  0  0  0  0  0  0
   -7.7222   10.5841  -13.0265 C   0  0  0  0  0  0  0  0  0  0  0  0
   -6.9887   11.7756  -13.1353 C   0  0  0  0  0  0  0  0  0  0  0  0
   -7.8163   10.0177  -11.7563 C   0  0  0  0  0  0  0  0  0  0  0  0
   -7.2425   10.6185  -10.6022 C   0  0  0  0  0  0  0  0  0  0  0  0
   -7.6172    9.7487   -9.5090 C   0  0  0  0  0  0  0  0  0  0  0  0
   -8.2846    8.7289   -9.9848 N   0  0  0  0  0  0  0  0  0  0  0  0
   -8.4176    8.8659  -11.2967 N   0  0  0  0  0  0  0  0  0  0  0  0
   -7.3368    9.8884   -8.0257 C   0  0  0  0  0  0  0  0  0  0  0  0
   -4.4023   13.6480  -11.4578 N   0  0  0  0  0  0  0  0  0  0  0  0
   -3.4623   14.7747  -11.4948 C   0  0  0  0  0  0  0  0  0  0  0  0
   -5.5331   13.6158  -12.1961 C   0  0  0  0  0  0  0  0  0  0  0  0
   -5.8776   14.5022  -12.9731 O   0  0  0  0  0  0  0  0  0  0  0  0
   -5.9585   10.4860   -7.7354 C   0  0  0  0  0  0  0  0  0  0  0  0
   -5.8494   11.7555   -7.1596 C   0  0  0  0  0  0  0  0  0  0  0  0
   -4.5968   12.3068   -6.9148 C   0  0  0  0  0  0  0  0  0  0  0  0
   -3.4468   11.5860   -7.2370 C   0  0  0  0  0  0  0  0  0  0  0  0
   -3.5513   10.3089   -7.8057 C   0  0  0  0  0  0  0  0  0  0  0  0
   -4.8090    9.7654   -8.0523 C   0  0  0  0  0  0  0  0  0  0  0  0
   -2.0901   12.1669   -6.9801 C   0  0  0  0  0  0  0  0  0  0  0  0
   -1.7479   13.4121   -6.4872 C   0  0  0  0  0  0  0  0  0  0  0  0
   -0.3990   13.4663   -6.4328 N   0  0  0  0  0  0  0  0  0  0  0  0
    0.1869   12.3691   -6.8386 N   0  0  0  0  0  0  0  0  0  0  0  0
   -0.8034   11.5628   -7.1902 C   0  0  0  0  0  0  0  0  0  0  0  0
    0.4389   14.5894   -5.9640 C   0  0  0  0  0  0  0  0  0  0  0  0
    1.5042   14.2139   -4.8744 C   0  0  0  0  0  0  0  0  0  0  0  0
    2.6302   13.6295   -5.4977 O   0  0  0  0  0  0  0  0  0  0  0  0
    0.9501   13.1612   -3.9053 C   0  0  0  0  0  0  0  0  0  0  0  0
    2.0179   15.4484   -4.1037 C   0  0  0  0  0  0  0  0  0  0  0  0
   -5.4969   11.6111  -10.3560 H   0  0  0  0  0  0  0  0  0  0  0  0
   -6.9986   12.5652  -10.1084 H   0  0  0  0  0  0  0  0  0  0  0  0
   -8.7448   10.7898  -13.3757 H   0  0  0  0  0  0  0  0  0  0  0  0
   -7.2513    9.8419  -13.6878 H   0  0  0  0  0  0  0  0  0  0  0  0
   -6.8965   12.2561  -14.0981 H   0  0  0  0  0  0  0  0  0  0  0  0
   -8.0357    9.5970   -7.2556 H   0  0  0  0  0  0  0  0  0  0  0  0
   -4.1971   12.8720  -10.8613 H   0  0  0  0  0  0  0  0  0  0  0  0
   -2.6221   14.5745  -10.8136 H   0  0  0  0  0  0  0  0  0  0  0  0
   -3.0817   14.9010  -12.5191 H   0  0  0  0  0  0  0  0  0  0  0  0
   -3.9787   15.6934  -11.1797 H   0  0  0  0  0  0  0  0  0  0  0  0
   -6.7407   12.3094   -6.9043 H   0  0  0  0  0  0  0  0  0  0  0  0
   -4.5143   13.2904   -6.4764 H   0  0  0  0  0  0  0  0  0  0  0  0
   -2.6607    9.7496   -8.0512 H   0  0  0  0  0  0  0  0  0  0  0  0
   -4.8939    8.7820   -8.4907 H   0  0  0  0  0  0  0  0  0  0  0  0
   -2.4321   14.1965   -6.1989 H   0  0  0  0  0  0  0  0  0  0  0  0
   -0.6606   10.5688   -7.5878 H   0  0  0  0  0  0  0  0  0  0  0  0
    0.9713   15.0036   -6.8329 H   0  0  0  0  0  0  0  0  0  0  0  0
   -0.2256   15.3572   -5.5409 H   0  0  0  0  0  0  0  0  0  0  0  0
    3.2752   13.4021   -4.8384 H   0  0  0  0  0  0  0  0  0  0  0  0
    1.7145   12.9160   -3.1533 H   0  0  0  0  0  0  0  0  0  0  0  0
    0.0563   13.5598   -3.4030 H   0  0  0  0  0  0  0  0  0  0  0  0
    0.6818   12.2530   -4.4649 H   0  0  0  0  0  0  0  0  0  0  0  0
    2.7591   15.1317   -3.3552 H   0  0  0  0  0  0  0  0  0  0  0  0
    2.4859   16.1517   -4.8082 H   0  0  0  0  0  0  0  0  0  0  0  0
    1.1747   15.9421   -3.5985 H   0  0  0  0  0  0  0  0  0  0  0  0
  1  2  1  0  0  0  0
  1  4  2  0  0  0  0
  1 13  1  0  0  0  0
  2  6  1  0  0  0  0
  3  4  1  0  0  0  0
  3  5  1  0  0  0  0
  5  6  2  0  0  0  0
  5  9  1  0  0  0  0
  6  7  1  0  0  0  0
  7  8  1  0  0  0  0
  7 10  2  3  0  0  0
  8  9  2  0  0  0  0
 10 15  1  0  0  0  0
 11 12  1  0  0  0  0
 11 13  1  0  0  0  0
 13 14  2  0  0  0  0
 15 16  2  0  0  0  0
 15 20  1  0  0  0  0
 16 17  1  0  0  0  0
 17 18  2  0  0  0  0
 18 19  1  0  0  0  0
 18 21  1  0  0  0  0
 19 20  2  0  0  0  0
 21 22  2  0  0  0  0
 21 25  1  0  0  0  0
 22 23  1  0  0  0  0
 23 24  1  0  0  0  0
 23 26  1  0  0  0  0
 24 25  2  0  0  0  0
 26 27  1  0  0  0  0
 27 28  1  0  0  0  0
 27 29  1  0  0  0  0
 27 30  1  0  0  0  0
  2 31  1  0  0  0  0
  2 32  1  0  0  0  0
  3 33  1  0  0  0  0
  3 34  1  0  0  0  0
  4 35  1  0  0  0  0
 10 36  1  0  0  0  0
 11 37  1  0  0  0  0
 12 38  1  0  0  0  0
 12 39  1  0  0  0  0
 12 40  1  0  0  0  0
 16 41  1  0  0  0  0
 17 42  1  0  0  0  0
 19 43  1  0  0  0  0
 20 44  1  0  0  0  0
 22 45  1  0  0  0  0
 25 46  1  0  0  0  0
 26 47  1  0  0  0  0
 26 48  1  0  0  0  0
 28 49  1  0  0  0  0
 29 50  1  0  0  0  0
 29 51  1  0  0  0  0
 29 52  1  0  0  0  0
 30 53  1  0  0  0  0
 30 54  1  0  0  0  0
 30 55  1  0  0  0  0
M  END
> <Name>
20

> <IC50[uM]>
0.016

$$$$
20
  -OEChem-05192314333D
 Structure written by MMmdl.
 55 58  0     1  0  0  0  0  0999 V2000
   -6.3740   12.3524  -12.0161 C   0  0  0  0  0  0  0  0  0  0  0  0
   -6.5100   11.8065  -10.7374 C   0  0  0  0  0  0  0  0  0  0  0  0
   -7.7222   10.5841  -13.0265 C   0  0  0  0  0  0  0  0  0  0  0  0
   -6.9887   11.7756  -13.1353 C   0  0  0  0  0  0  0  0  0  0  0  0
   -7.8163   10.0177  -11.7563 C   0  0  3  0  0  0  0  0  0  0  0  0
   -7.2425   10.6185  -10.6022 C   0  0  0  0  0  0  0  0  0  0  0  0
   -7.6172    9.7487   -9.5090 C   0  0  0  0  0  0  0  0  0  0  0  0
   -8.2846    8.7289   -9.9848 N   0  0  0  0  0  0  0  0  0  0  0  0
   -8.4176    8.8659  -11.2967 N   0  0  0  0  0  0  0  0  0  0  0  0
   -7.3368    9.8884   -8.0257 C   0  0  0  0  0  0  0  0  0  0  0  0
   -4.4023   13.6480  -11.4578 N   0  0  0  0  0  0  0  0  0  0  0  0
   -3.4623   14.7747  -11.4948 C   0  0  0  0  0  0  0  0  0  0  0  0
   -5.5331   13.6158  -12.1961 C   0  0  0  0  0  0  0  0  0  0  0  0
   -5.8776   14.5022  -12.9731 O   0  0  0  0  0  0  0  0  0  0  0  0
   -5.9585   10.4860   -7.7354 C   0  0  0  0  0  0  0  0  0  0  0  0
   -5.8494   11.7555   -7.1596 C   0  0  0  0  0  0  0  0  0  0  0  0
   -4.5968   12.3068   -6.9148 C   0  0  0  0  0  0  0  0  0  0  0  0
   -3.4468   11.5860   -7.2370 C   0  0  0  0  0  0  0  0  0  0  0  0
   -3.5513   10.3089   -7.8057 C   0  0  0  0  0  0  0  0  0  0  0  0
   -4.8090    9.7654   -8.0523 C   0  0  0  0  0  0  0  0  0  0  0  0
   -2.0901   12.1669   -6.9801 C   0  0  0  0  0  0  0  0  0  0  0  0
   -1.7479   13.4121   -6.4872 C   0  0  0  0  0  0  0  0  0  0  0  0
   -0.3990   13.4663   -6.4328 N   0  0  0  0  0  0  0  0  0  0  0  0
    0.1869   12.3691   -6.8386 N   0  0  0  0  0  0  0  0  0  0  0  0
   -0.8034   11.5628   -7.1902 C   0  0  0  0  0  0  0  0  0  0  0  0
    0.4389   14.5894   -5.9640 C   0  0  0  0  0  0  0  0  0  0  0  0
    1.5042   14.2139   -4.8744 C   0  0  0  0  0  0  0  0  0  0  0  0
    2.6302   13.6295   -5.4977 O   0  0  0  0  0  0  0  0  0  0  0  0
    0.9501   13.1612   -3.9053 C   0  0  0  0  0  0  0  0  0  0  0  0
    2.0179   15.4484   -4.1037 C   0  0  0  0  0  0  0  0  0  0  0  0
   -6.0641   12.2854   -9.8782 H   0  0  0  0  0  0  0  0  0  0  0  0
   -8.1913   10.1279  -13.8857 H   0  0  0  0  0  0  0  0  0  0  0  0
   -6.8965   12.2561  -14.0981 H   0  0  0  0  0  0  0  0  0  0  0  0
   -6.8834    9.4622  -11.9330 H   0  0  0  0  0  0  0  0  0  0  0  0
   -8.1032   10.5418   -7.5834 H   0  0  0  0  0  0  0  0  0  0  0  0
   -7.3924    8.8923   -7.5624 H   0  0  0  0  0  0  0  0  0  0  0  0
   -4.1971   12.8720  -10.8613 H   0  0  0  0  0  0  0  0  0  0  0  0
   -2.6221   14.5745  -10.8136 H   0  0  0  0  0  0  0  0  0  0  0  0
   -3.0817   14.9010  -12.5191 H   0  0  0  0  0  0  0  0  0  0  0  0
   -3.9787   15.6934  -11.1797 H   0  0  0  0  0  0  0  0  0  0  0  0
   -6.7407   12.3094   -6.9043 H   0  0  0  0  0  0  0  0  0  0  0  0
   -4.5143   13.2904   -6.4764 H   0  0  0  0  0  0  0  0  0  0  0  0
   -2.6607    9.7496   -8.0512 H   0  0  0  0  0  0  0  0  0  0  0  0
   -4.8939    8.7820   -8.4907 H   0  0  0  0  0  0  0  0  0  0  0  0
   -2.4321   14.1965   -6.1989 H   0  0  0  0  0  0  0  0  0  0  0  0
   -0.6606   10.5688   -7.5878 H   0  0  0  0  0  0  0  0  0  0  0  0
    0.9713   15.0036   -6.8329 H   0  0  0  0  0  0  0  0  0  0  0  0
   -0.2256   15.3572   -5.5409 H   0  0  0  0  0  0  0  0  0  0  0  0
    3.2752   13.4021   -4.8384 H   0  0  0  0  0  0  0  0  0  0  0  0
    1.7145   12.9160   -3.1533 H   0  0  0  0  0  0  0  0  0  0  0  0
    0.0563   13.5598   -3.4030 H   0  0  0  0  0  0  0  0  0  0  0  0
    0.6818   12.2530   -4.4649 H   0  0  0  0  0  0  0  0  0  0  0  0
    2.7591   15.1317   -3.3552 H   0  0  0  0  0  0  0  0  0  0  0  0
    2.4859   16.1517   -4.8082 H   0  0  0  0  0  0  0  0  0  0  0  0
    1.1747   15.9421   -3.5985 H   0  0  0  0  0  0  0  0  0  0  0  0
  1  2  2  0  0  0  0
  1  4  1  0  0  0  0
  1 13  1  0  0  0  0
  2  6  1  0  0  0  0
  3  4  2  0  0  0  0
  3  5  1  0  0  0  0
  5  6  1  0  0  0  0
  5  9  1  0  0  0  0
  6  7  2  0  0  0  0
  7  8  1  0  0  0  0
  7 10  1  0  0  0  0
  8  9  2  0  0  0  0
 10 15  1  0  0  0  0
 11 12  1  0  0  0  0
 11 13  1  0  0  0  0
 13 14  2  0  0  0  0
 15 16  2  0  0  0  0
 15 20  1  0  0  0  0
 16 17  1  0  0  0  0
 17 18  2  0  0  0  0
 18 19  1  0  0  0  0
 18 21  1  0  0  0  0
 19 20  2  0  0  0  0
 21 22  2  0  0  0  0
 21 25  1  0  0  0  0
 22 23  1  0  0  0  0
 23 24  1  0  0  0  0
 23 26  1  0  0  0  0
 24 25  2  0  0  0  0
 26 27  1  0  0  0  0
 27 28  1  0  0  0  0
 27 29  1  0  0  0  0
 27 30  1  0  0  0  0
  2 31  1  0  0  0  0
  3 32  1  0  0  0  0
  4 33  1  0  0  0  0
  5 34  1  0  0  0  0
 10 35  1  0  0  0  0
 10 36  1  0  0  0  0
 11 37  1  0  0  0  0
 12 38  1  0  0  0  0
 12 39  1  0  0  0  0
 12 40  1  0  0  0  0
 16 41  1  0  0  0  0
 17 42  1  0  0  0  0
 19 43  1  0  0  0  0
 20 44  1  0  0  0  0
 22 45  1  0  0  0  0
 25 46  1  0  0  0  0
 26 47  1  0  0  0  0
 26 48  1  0  0  0  0
 28 49  1  0  0  0  0
 29 50  1  0  0  0  0
 29 51  1  0  0  0  0
 29 52  1  0  0  0  0
 30 53  1  0  0  0  0
 30 54  1  0  0  0  0
 30 55  1  0  0  0  0
M  END
> <Name>
20

> <IC50[uM]>
0.016

$$$$
20
  -OEChem-05192314333D
 Structure written by MMmdl.
 55 58  0     0  0  0  0  0  0999 V2000
   -6.3740   12.3524  -12.0161 C   0  0  0  0  0  0  0  0  0  0  0  0
   -6.5100   11.8065  -10.7374 C   0  0  0  0  0  0  0  0  0  0  0  0
   -7.7222   10.5841  -13.0265 C   0  0  0  0  0  0  0  0  0  0  0  0
   -6.9887   11.7756  -13.1353 C   0  0  0  0  0  0  0  0  0  0  0  0
   -7.8163   10.0177  -11.7563 C   0  0  0  0  0  0  0  0  0  0  0  0
   -7.2425   10.6185  -10.6022 C   0  0  0  0  0  0  0  0  0  0  0  0
   -7.6172    9.7487   -9.5090 C   0  0  0  0  0  0  0  0  0  0  0  0
   -8.2846    8.7289   -9.9848 N   0  0  0  0  0  0  0  0  0  0  0  0
   -8.4176    8.8659  -11.2967 N   0  0  0  0  0  0  0  0  0  0  0  0
   -7.3368    9.8884   -8.0257 C   0  0  0  0  0  0  0  0  0  0  0  0
   -4.4023   13.6480  -11.4578 N   0  0  0  0  0  0  0  0  0  0  0  0
   -3.4623   14.7747  -11.4948 C   0  0  0  0  0  0  0  0  0  0  0  0
   -5.5331   13.6158  -12.1961 C   0  0  0  0  0  0  0  0  0  0  0  0
   -5.8776   14.5022  -12.9731 O   0  0  0  0  0  0  0  0  0  0  0  0
   -5.9585   10.4860   -7.7354 C   0  0  0  0  0  0  0  0  0  0  0  0
   -5.8494   11.7555   -7.1596 C   0  0  0  0  0  0  0  0  0  0  0  0
   -4.5968   12.3068   -6.9148 C   0  0  0  0  0  0  0  0  0  0  0  0
   -3.4468   11.5860   -7.2370 C   0  0  0  0  0  0  0  0  0  0  0  0
   -3.5513   10.3089   -7.8057 C   0  0  0  0  0  0  0  0  0  0  0  0
   -4.8090    9.7654   -8.0523 C   0  0  0  0  0  0  0  0  0  0  0  0
   -2.0901   12.1669   -6.9801 C   0  0  0  0  0  0  0  0  0  0  0  0
   -1.7479   13.4121   -6.4872 C   0  0  0  0  0  0  0  0  0  0  0  0
   -0.3990   13.4663   -6.4328 N   0  0  0  0  0  0  0  0  0  0  0  0
    0.1869   12.3691   -6.8386 N   0  0  0  0  0  0  0  0  0  0  0  0
   -0.8034   11.5628   -7.1902 C   0  0  0  0  0  0  0  0  0  0  0  0
    0.4389   14.5894   -5.9640 C   0  0  0  0  0  0  0  0  0  0  0  0
    1.5042   14.2139   -4.8744 C   0  0  0  0  0  0  0  0  0  0  0  0
    2.6302   13.6295   -5.4977 O   0  0  0  0  0  0  0  0  0  0  0  0
    0.9501   13.1612   -3.9053 C   0  0  0  0  0  0  0  0  0  0  0  0
    2.0179   15.4484   -4.1037 C   0  0  0  0  0  0  0  0  0  0  0  0
   -6.0641   12.2854   -9.8782 H   0  0  0  0  0  0  0  0  0  0  0  0
   -8.1913   10.1279  -13.8857 H   0  0  0  0  0  0  0  0  0  0  0  0
   -7.6795   12.5319  -13.5364 H   0  0  0  0  0  0  0  0  0  0  0  0
   -6.1895   11.5845  -13.8665 H   0  0  0  0  0  0  0  0  0  0  0  0
   -8.1032   10.5418   -7.5834 H   0  0  0  0  0  0  0  0  0  0  0  0
   -7.3924    8.8923   -7.5624 H   0  0  0  0  0  0  0  0  0  0  0  0
   -4.1971   12.8720  -10.8613 H   0  0  0  0  0  0  0  0  0  0  0  0
   -2.6221   14.5745  -10.8136 H   0  0  0  0  0  0  0  0  0  0  0  0
   -3.0817   14.9010  -12.5191 H   0  0  0  0  0  0  0  0  0  0  0  0
   -3.9787   15.6934  -11.1797 H   0  0  0  0  0  0  0  0  0  0  0  0
   -6.7407   12.3094   -6.9043 H   0  0  0  0  0  0  0  0  0  0  0  0
   -4.5143   13.2904   -6.4764 H   0  0  0  0  0  0  0  0  0  0  0  0
   -2.6607    9.7496   -8.0512 H   0  0  0  0  0  0  0  0  0  0  0  0
   -4.8939    8.7820   -8.4907 H   0  0  0  0  0  0  0  0  0  0  0  0
   -2.4321   14.1965   -6.1989 H   0  0  0  0  0  0  0  0  0  0  0  0
   -0.6606   10.5688   -7.5878 H   0  0  0  0  0  0  0  0  0  0  0  0
    0.9713   15.0036   -6.8329 H   0  0  0  0  0  0  0  0  0  0  0  0
   -0.2256   15.3572   -5.5409 H   0  0  0  0  0  0  0  0  0  0  0  0
    3.2752   13.4021   -4.8384 H   0  0  0  0  0  0  0  0  0  0  0  0
    1.7145   12.9160   -3.1533 H   0  0  0  0  0  0  0  0  0  0  0  0
    0.0563   13.5598   -3.4030 H   0  0  0  0  0  0  0  0  0  0  0  0
    0.6818   12.2530   -4.4649 H   0  0  0  0  0  0  0  0  0  0  0  0
    2.7591   15.1317   -3.3552 H   0  0  0  0  0  0  0  0  0  0  0  0
    2.4859   16.1517   -4.8082 H   0  0  0  0  0  0  0  0  0  0  0  0
    1.1747   15.9421   -3.5985 H   0  0  0  0  0  0  0  0  0  0  0  0
  1  2  2  0  0  0  0
  1  4  1  0  0  0  0
  1 13  1  0  0  0  0
  2  6  1  0  0  0  0
  3  4  1  0  0  0  0
  3  5  2  0  0  0  0
  5  6  1  0  0  0  0
  5  9  1  0  0  0  0
  6  7  2  0  0  0  0
  7  8  1  0  0  0  0
  7 10  1  0  0  0  0
  8  9  2  0  0  0  0
 10 15  1  0  0  0  0
 11 12  1  0  0  0  0
 11 13  1  0  0  0  0
 13 14  2  0  0  0  0
 15 16  2  0  0  0  0
 15 20  1  0  0  0  0
 16 17  1  0  0  0  0
 17 18  2  0  0  0  0
 18 19  1  0  0  0  0
 18 21  1  0  0  0  0
 19 20  2  0  0  0  0
 21 22  2  0  0  0  0
 21 25  1  0  0  0  0
 22 23  1  0  0  0  0
 23 24  1  0  0  0  0
 23 26  1  0  0  0  0
 24 25  2  0  0  0  0
 26 27  1  0  0  0  0
 27 28  1  0  0  0  0
 27 29  1  0  0  0  0
 27 30  1  0  0  0  0
  2 31  1  0  0  0  0
  3 32  1  0  0  0  0
  4 33  1  0  0  0  0
  4 34  1  0  0  0  0
 10 35  1  0  0  0  0
 10 36  1  0  0  0  0
 11 37  1  0  0  0  0
 12 38  1  0  0  0  0
 12 39  1  0  0  0  0
 12 40  1  0  0  0  0
 16 41  1  0  0  0  0
 17 42  1  0  0  0  0
 19 43  1  0  0  0  0
 20 44  1  0  0  0  0
 22 45  1  0  0  0  0
 25 46  1  0  0  0  0
 26 47  1  0  0  0  0
 26 48  1  0  0  0  0
 28 49  1  0  0  0  0
 29 50  1  0  0  0  0
 29 51  1  0  0  0  0
 29 52  1  0  0  0  0
 30 53  1  0  0  0  0
 30 54  1  0  0  0  0
 30 55  1  0  0  0  0
M  END
> <Name>
20

> <IC50[uM]>
0.016

$$$$
20
  -OEChem-05192314333D
 Structure written by MMmdl.
 55 58  0     0  0  0  0  0  0999 V2000
   -6.3740   12.3524  -12.0161 C   0  0  0  0  0  0  0  0  0  0  0  0
   -6.5100   11.8065  -10.7374 C   0  0  0  0  0  0  0  0  0  0  0  0
   -7.7222   10.5841  -13.0265 C   0  0  0  0  0  0  0  0  0  0  0  0
   -6.9887   11.7756  -13.1353 C   0  0  0  0  0  0  0  0  0  0  0  0
   -7.8163   10.0177  -11.7563 C   0  0  0  0  0  0  0  0  0  0  0  0
   -7.2425   10.6185  -10.6022 C   0  0  0  0  0  0  0  0  0  0  0  0
   -7.6172    9.7487   -9.5090 C   0  0  0  0  0  0  0  0  0  0  0  0
   -8.2846    8.7289   -9.9848 N   0  0  0  0  0  0  0  0  0  0  0  0
   -8.4176    8.8659  -11.2967 N   0  0  0  0  0  0  0  0  0  0  0  0
   -7.3368    9.8884   -8.0257 C   0  0  0  0  0  0  0  0  0  0  0  0
   -4.4023   13.6480  -11.4578 N   0  0  0  0  0  0  0  0  0  0  0  0
   -3.4623   14.7747  -11.4948 C   0  0  0  0  0  0  0  0  0  0  0  0
   -5.5331   13.6158  -12.1961 C   0  0  0  0  0  0  0  0  0  0  0  0
   -5.8776   14.5022  -12.9731 O   0  0  0  0  0  0  0  0  0  0  0  0
   -5.9585   10.4860   -7.7354 C   0  0  0  0  0  0  0  0  0  0  0  0
   -5.8494   11.7555   -7.1596 C   0  0  0  0  0  0  0  0  0  0  0  0
   -4.5968   12.3068   -6.9148 C   0  0  0  0  0  0  0  0  0  0  0  0
   -3.4468   11.5860   -7.2370 C   0  0  0  0  0  0  0  0  0  0  0  0
   -3.5513   10.3089   -7.8057 C   0  0  0  0  0  0  0  0  0  0  0  0
   -4.8090    9.7654   -8.0523 C   0  0  0  0  0  0  0  0  0  0  0  0
   -2.0901   12.1669   -6.9801 C   0  0  0  0  0  0  0  0  0  0  0  0
   -1.7479   13.4121   -6.4872 C   0  0  0  0  0  0  0  0  0  0  0  0
   -0.3990   13.4663   -6.4328 N   0  0  0  0  0  0  0  0  0  0  0  0
    0.1869   12.3691   -6.8386 N   0  0  0  0  0  0  0  0  0  0  0  0
   -0.8034   11.5628   -7.1902 C   0  0  0  0  0  0  0  0  0  0  0  0
    0.4389   14.5894   -5.9640 C   0  0  0  0  0  0  0  0  0  0  0  0
    1.5042   14.2139   -4.8744 C   0  0  0  0  0  0  0  0  0  0  0  0
    2.6302   13.6295   -5.4977 O   0  0  0  0  0  0  0  0  0  0  0  0
    0.9501   13.1612   -3.9053 C   0  0  0  0  0  0  0  0  0  0  0  0
    2.0179   15.4484   -4.1037 C   0  0  0  0  0  0  0  0  0  0  0  0
   -5.4969   11.6111  -10.3560 H   0  0  0  0  0  0  0  0  0  0  0  0
   -6.9986   12.5652  -10.1084 H   0  0  0  0  0  0  0  0  0  0  0  0
   -8.1913   10.1279  -13.8857 H   0  0  0  0  0  0  0  0  0  0  0  0
   -6.8965   12.2561  -14.0981 H   0  0  0  0  0  0  0  0  0  0  0  0
   -8.1032   10.5418   -7.5834 H   0  0  0  0  0  0  0  0  0  0  0  0
   -7.3924    8.8923   -7.5624 H   0  0  0  0  0  0  0  0  0  0  0  0
   -4.1971   12.8720  -10.8613 H   0  0  0  0  0  0  0  0  0  0  0  0
   -2.6221   14.5745  -10.8136 H   0  0  0  0  0  0  0  0  0  0  0  0
   -3.0817   14.9010  -12.5191 H   0  0  0  0  0  0  0  0  0  0  0  0
   -3.9787   15.6934  -11.1797 H   0  0  0  0  0  0  0  0  0  0  0  0
   -6.7407   12.3094   -6.9043 H   0  0  0  0  0  0  0  0  0  0  0  0
   -4.5143   13.2904   -6.4764 H   0  0  0  0  0  0  0  0  0  0  0  0
   -2.6607    9.7496   -8.0512 H   0  0  0  0  0  0  0  0  0  0  0  0
   -4.8939    8.7820   -8.4907 H   0  0  0  0  0  0  0  0  0  0  0  0
   -2.4321   14.1965   -6.1989 H   0  0  0  0  0  0  0  0  0  0  0  0
   -0.6606   10.5688   -7.5878 H   0  0  0  0  0  0  0  0  0  0  0  0
    0.9713   15.0036   -6.8329 H   0  0  0  0  0  0  0  0  0  0  0  0
   -0.2256   15.3572   -5.5409 H   0  0  0  0  0  0  0  0  0  0  0  0
    3.2752   13.4021   -4.8384 H   0  0  0  0  0  0  0  0  0  0  0  0
    1.7145   12.9160   -3.1533 H   0  0  0  0  0  0  0  0  0  0  0  0
    0.0563   13.5598   -3.4030 H   0  0  0  0  0  0  0  0  0  0  0  0
    0.6818   12.2530   -4.4649 H   0  0  0  0  0  0  0  0  0  0  0  0
    2.7591   15.1317   -3.3552 H   0  0  0  0  0  0  0  0  0  0  0  0
    2.4859   16.1517   -4.8082 H   0  0  0  0  0  0  0  0  0  0  0  0
    1.1747   15.9421   -3.5985 H   0  0  0  0  0  0  0  0  0  0  0  0
  1  2  1  0  0  0  0
  1  4  2  0  0  0  0
  1 13  1  0  0  0  0
  2  6  1  0  0  0  0
  3  4  1  0  0  0  0
  3  5  2  0  0  0  0
  5  6  1  0  0  0  0
  5  9  1  0  0  0  0
  6  7  2  0  0  0  0
  7  8  1  0  0  0  0
  7 10  1  0  0  0  0
  8  9  2  0  0  0  0
 10 15  1  0  0  0  0
 11 12  1  0  0  0  0
 11 13  1  0  0  0  0
 13 14  2  0  0  0  0
 15 16  2  0  0  0  0
 15 20  1  0  0  0  0
 16 17  1  0  0  0  0
 17 18  2  0  0  0  0
 18 19  1  0  0  0  0
 18 21  1  0  0  0  0
 19 20  2  0  0  0  0
 21 22  2  0  0  0  0
 21 25  1  0  0  0  0
 22 23  1  0  0  0  0
 23 24  1  0  0  0  0
 23 26  1  0  0  0  0
 24 25  2  0  0  0  0
 26 27  1  0  0  0  0
 27 28  1  0  0  0  0
 27 29  1  0  0  0  0
 27 30  1  0  0  0  0
  2 31  1  0  0  0  0
  2 32  1  0  0  0  0
  3 33  1  0  0  0  0
  4 34  1  0  0  0  0
 10 35  1  0  0  0  0
 10 36  1  0  0  0  0
 11 37  1  0  0  0  0
 12 38  1  0  0  0  0
 12 39  1  0  0  0  0
 12 40  1  0  0  0  0
 16 41  1  0  0  0  0
 17 42  1  0  0  0  0
 19 43  1  0  0  0  0
 20 44  1  0  0  0  0
 22 45  1  0  0  0  0
 25 46  1  0  0  0  0
 26 47  1  0  0  0  0
 26 48  1  0  0  0  0
 28 49  1  0  0  0  0
 29 50  1  0  0  0  0
 29 51  1  0  0  0  0
 29 52  1  0  0  0  0
 30 53  1  0  0  0  0
 30 54  1  0  0  0  0
 30 55  1  0  0  0  0
M  END
> <Name>
20

> <IC50[uM]>
0.016

$$$$
20
  -OEChem-05192314333D
 Structure written by MMmdl.
 55 58  0     1  0  0  0  0  0999 V2000
   -6.3740   12.3524  -12.0161 C   0  0  0  0  0  0  0  0  0  0  0  0
   -6.5100   11.8065  -10.7374 C   0  0  0  0  0  0  0  0  0  0  0  0
   -7.7222   10.5841  -13.0265 C   0  0  0  0  0  0  0  0  0  0  0  0
   -6.9887   11.7756  -13.1353 C   0  0  0  0  0  0  0  0  0  0  0  0
   -7.8163   10.0177  -11.7563 C   0  0  0  0  0  0  0  0  0  0  0  0
   -7.2425   10.6185  -10.6022 C   0  0  3  0  0  0  0  0  0  0  0  0
   -7.6172    9.7487   -9.5090 C   0  0  0  0  0  0  0  0  0  0  0  0
   -8.2846    8.7289   -9.9848 N   0  0  0  0  0  0  0  0  0  0  0  0
   -8.4176    8.8659  -11.2967 N   0  0  0  0  0  0  0  0  0  0  0  0
   -7.3368    9.8884   -8.0257 C   0  0  0  0  0  0  0  0  0  0  0  0
   -4.4023   13.6480  -11.4578 N   0  0  0  0  0  0  0  0  0  0  0  0
   -3.4623   14.7747  -11.4948 C   0  0  0  0  0  0  0  0  0  0  0  0
   -5.5331   13.6158  -12.1961 C   0  0  0  0  0  0  0  0  0  0  0  0
   -5.8776   14.5022  -12.9731 O   0  0  0  0  0  0  0  0  0  0  0  0
   -5.9585   10.4860   -7.7354 C   0  0  0  0  0  0  0  0  0  0  0  0
   -5.8494   11.7555   -7.1596 C   0  0  0  0  0  0  0  0  0  0  0  0
   -4.5968   12.3068   -6.9148 C   0  0  0  0  0  0  0  0  0  0  0  0
   -3.4468   11.5860   -7.2370 C   0  0  0  0  0  0  0  0  0  0  0  0
   -3.5513   10.3089   -7.8057 C   0  0  0  0  0  0  0  0  0  0  0  0
   -4.8090    9.7654   -8.0523 C   0  0  0  0  0  0  0  0  0  0  0  0
   -2.0901   12.1669   -6.9801 C   0  0  0  0  0  0  0  0  0  0  0  0
   -1.7479   13.4121   -6.4872 C   0  0  0  0  0  0  0  0  0  0  0  0
   -0.3990   13.4663   -6.4328 N   0  0  0  0  0  0  0  0  0  0  0  0
    0.1869   12.3691   -6.8386 N   0  0  0  0  0  0  0  0  0  0  0  0
   -0.8034   11.5628   -7.1902 C   0  0  0  0  0  0  0  0  0  0  0  0
    0.4389   14.5894   -5.9640 C   0  0  0  0  0  0  0  0  0  0  0  0
    1.5042   14.2139   -4.8744 C   0  0  0  0  0  0  0  0  0  0  0  0
    2.6302   13.6295   -5.4977 O   0  0  0  0  0  0  0  0  0  0  0  0
    0.9501   13.1612   -3.9053 C   0  0  0  0  0  0  0  0  0  0  0  0
    2.0179   15.4484   -4.1037 C   0  0  0  0  0  0  0  0  0  0  0  0
   -6.0641   12.2854   -9.8782 H   0  0  0  0  0  0  0  0  0  0  0  0
   -8.1913   10.1279  -13.8857 H   0  0  0  0  0  0  0  0  0  0  0  0
   -6.8965   12.2561  -14.0981 H   0  0  0  0  0  0  0  0  0  0  0  0
   -6.3233   10.0335  -10.7537 H   0  0  0  0  0  0  0  0  0  0  0  0
   -8.6387    7.9660   -9.4439 H   0  0  0  0  0  0  0  0  0  0  0  0
   -8.0357    9.5970   -7.2556 H   0  0  0  0  0  0  0  0  0  0  0  0
   -4.1971   12.8720  -10.8613 H   0  0  0  0  0  0  0  0  0  0  0  0
   -2.6221   14.5745  -10.8136 H   0  0  0  0  0  0  0  0  0  0  0  0
   -3.0817   14.9010  -12.5191 H   0  0  0  0  0  0  0  0  0  0  0  0
   -3.9787   15.6934  -11.1797 H   0  0  0  0  0  0  0  0  0  0  0  0
   -6.7407   12.3094   -6.9043 H   0  0  0  0  0  0  0  0  0  0  0  0
   -4.5143   13.2904   -6.4764 H   0  0  0  0  0  0  0  0  0  0  0  0
   -2.6607    9.7496   -8.0512 H   0  0  0  0  0  0  0  0  0  0  0  0
   -4.8939    8.7820   -8.4907 H   0  0  0  0  0  0  0  0  0  0  0  0
   -2.4321   14.1965   -6.1989 H   0  0  0  0  0  0  0  0  0  0  0  0
   -0.6606   10.5688   -7.5878 H   0  0  0  0  0  0  0  0  0  0  0  0
    0.9713   15.0036   -6.8329 H   0  0  0  0  0  0  0  0  0  0  0  0
   -0.2256   15.3572   -5.5409 H   0  0  0  0  0  0  0  0  0  0  0  0
    3.2752   13.4021   -4.8384 H   0  0  0  0  0  0  0  0  0  0  0  0
    1.7145   12.9160   -3.1533 H   0  0  0  0  0  0  0  0  0  0  0  0
    0.0563   13.5598   -3.4030 H   0  0  0  0  0  0  0  0  0  0  0  0
    0.6818   12.2530   -4.4649 H   0  0  0  0  0  0  0  0  0  0  0  0
    2.7591   15.1317   -3.3552 H   0  0  0  0  0  0  0  0  0  0  0  0
    2.4859   16.1517   -4.8082 H   0  0  0  0  0  0  0  0  0  0  0  0
    1.1747   15.9421   -3.5985 H   0  0  0  0  0  0  0  0  0  0  0  0
  1  2  2  0  0  0  0
  1  4  1  0  0  0  0
  1 13  1  0  0  0  0
  2  6  1  0  0  0  0
  3  4  2  0  0  0  0
  3  5  1  0  0  0  0
  5  6  1  0  0  0  0
  5  9  2  0  0  0  0
  6  7  1  0  0  0  0
  7  8  1  0  0  0  0
  7 10  2  3  0  0  0
  8  9  1  0  0  0  0
 10 15  1  0  0  0  0
 11 12  1  0  0  0  0
 11 13  1  0  0  0  0
 13 14  2  0  0  0  0
 15 16  2  0  0  0  0
 15 20  1  0  0  0  0
 16 17  1  0  0  0  0
 17 18  2  0  0  0  0
 18 19  1  0  0  0  0
 18 21  1  0  0  0  0
 19 20  2  0  0  0  0
 21 22  2  0  0  0  0
 21 25  1  0  0  0  0
 22 23  1  0  0  0  0
 23 24  1  0  0  0  0
 23 26  1  0  0  0  0
 24 25  2  0  0  0  0
 26 27  1  0  0  0  0
 27 28  1  0  0  0  0
 27 29  1  0  0  0  0
 27 30  1  0  0  0  0
  2 31  1  0  0  0  0
  3 32  1  0  0  0  0
  4 33  1  0  0  0  0
  6 34  1  0  0  0  0
  8 35  1  0  0  0  0
 10 36  1  0  0  0  0
 11 37  1  0  0  0  0
 12 38  1  0  0  0  0
 12 39  1  0  0  0  0
 12 40  1  0  0  0  0
 16 41  1  0  0  0  0
 17 42  1  0  0  0  0
 19 43  1  0  0  0  0
 20 44  1  0  0  0  0
 22 45  1  0  0  0  0
 25 46  1  0  0  0  0
 26 47  1  0  0  0  0
 26 48  1  0  0  0  0
 28 49  1  0  0  0  0
 29 50  1  0  0  0  0
 29 51  1  0  0  0  0
 29 52  1  0  0  0  0
 30 53  1  0  0  0  0
 30 54  1  0  0  0  0
 30 55  1  0  0  0  0
M  END
> <Name>
20

> <IC50[uM]>
0.016

$$$$
20
  -OEChem-05192314333D
 Structure written by MMmdl.
 55 58  0     0  0  0  0  0  0999 V2000
   -6.3740   12.3524  -12.0161 C   0  0  0  0  0  0  0  0  0  0  0  0
   -6.5100   11.8065  -10.7374 C   0  0  0  0  0  0  0  0  0  0  0  0
   -7.7222   10.5841  -13.0265 C   0  0  0  0  0  0  0  0  0  0  0  0
   -6.9887   11.7756  -13.1353 C   0  0  0  0  0  0  0  0  0  0  0  0
   -7.8163   10.0177  -11.7563 C   0  0  0  0  0  0  0  0  0  0  0  0
   -7.2425   10.6185  -10.6022 C   0  0  0  0  0  0  0  0  0  0  0  0
   -7.6172    9.7487   -9.5090 C   0  0  0  0  0  0  0  0  0  0  0  0
   -8.2846    8.7289   -9.9848 N   0  0  0  0  0  0  0  0  0  0  0  0
   -8.4176    8.8659  -11.2967 N   0  0  0  0  0  0  0  0  0  0  0  0
   -7.3368    9.8884   -8.0257 C   0  0  0  0  0  0  0  0  0  0  0  0
   -4.4023   13.6480  -11.4578 N   0  0  0  0  0  0  0  0  0  0  0  0
   -3.4623   14.7747  -11.4948 C   0  0  0  0  0  0  0  0  0  0  0  0
   -5.5331   13.6158  -12.1961 C   0  0  0  0  0  0  0  0  0  0  0  0
   -5.8776   14.5022  -12.9731 O   0  0  0  0  0  0  0  0  0  0  0  0
   -5.9585   10.4860   -7.7354 C   0  0  0  0  0  0  0  0  0  0  0  0
   -5.8494   11.7555   -7.1596 C   0  0  0  0  0  0  0  0  0  0  0  0
   -4.5968   12.3068   -6.9148 C   0  0  0  0  0  0  0  0  0  0  0  0
   -3.4468   11.5860   -7.2370 C   0  0  0  0  0  0  0  0  0  0  0  0
   -3.5513   10.3089   -7.8057 C   0  0  0  0  0  0  0  0  0  0  0  0
   -4.8090    9.7654   -8.0523 C   0  0  0  0  0  0  0  0  0  0  0  0
   -2.0901   12.1669   -6.9801 C   0  0  0  0  0  0  0  0  0  0  0  0
   -1.7479   13.4121   -6.4872 C   0  0  0  0  0  0  0  0  0  0  0  0
   -0.3990   13.4663   -6.4328 N   0  0  0  0  0  0  0  0  0  0  0  0
    0.1869   12.3691   -6.8386 N   0  0  0  0  0  0  0  0  0  0  0  0
   -0.8034   11.5628   -7.1902 C   0  0  0  0  0  0  0  0  0  0  0  0
    0.4389   14.5894   -5.9640 C   0  0  0  0  0  0  0  0  0  0  0  0
    1.5042   14.2139   -4.8744 C   0  0  0  0  0  0  0  0  0  0  0  0
    2.6302   13.6295   -5.4977 O   0  0  0  0  0  0  0  0  0  0  0  0
    0.9501   13.1612   -3.9053 C   0  0  0  0  0  0  0  0  0  0  0  0
    2.0179   15.4484   -4.1037 C   0  0  0  0  0  0  0  0  0  0  0  0
   -6.0641   12.2854   -9.8782 H   0  0  0  0  0  0  0  0  0  0  0  0
   -8.1913   10.1279  -13.8857 H   0  0  0  0  0  0  0  0  0  0  0  0
   -6.8965   12.2561  -14.0981 H   0  0  0  0  0  0  0  0  0  0  0  0
   -8.0357    9.5970   -7.2556 H   0  0  0  0  0  0  0  0  0  0  0  0
   -2.6221   14.5745  -10.8136 H   0  0  0  0  0  0  0  0  0  0  0  0
   -3.0817   14.9010  -12.5191 H   0  0  0  0  0  0  0  0  0  0  0  0
   -3.9787   15.6934  -11.1797 H   0  0  0  0  0  0  0  0  0  0  0  0
   -5.2393   15.2056  -12.9549 H   0  0  0  0  0  0  0  0  0  0  0  0
   -5.9701   10.0308   -6.7341 H   0  0  0  0  0  0  0  0  0  0  0  0
   -6.7407   12.3094   -6.9043 H   0  0  0  0  0  0  0  0  0  0  0  0
   -4.5143   13.2904   -6.4764 H   0  0  0  0  0  0  0  0  0  0  0  0
   -3.4456   11.1385   -6.2321 H   0  0  0  0  0  0  0  0  0  0  0  0
   -2.6607    9.7496   -8.0512 H   0  0  0  0  0  0  0  0  0  0  0  0
   -4.8939    8.7820   -8.4907 H   0  0  0  0  0  0  0  0  0  0  0  0
   -2.4321   14.1965   -6.1989 H   0  0  0  0  0  0  0  0  0  0  0  0
   -0.6606   10.5688   -7.5878 H   0  0  0  0  0  0  0  0  0  0  0  0
    0.9713   15.0036   -6.8329 H   0  0  0  0  0  0  0  0  0  0  0  0
   -0.2256   15.3572   -5.5409 H   0  0  0  0  0  0  0  0  0  0  0  0
    3.2752   13.4021   -4.8384 H   0  0  0  0  0  0  0  0  0  0  0  0
    1.7145   12.9160   -3.1533 H   0  0  0  0  0  0  0  0  0  0  0  0
    0.0563   13.5598   -3.4030 H   0  0  0  0  0  0  0  0  0  0  0  0
    0.6818   12.2530   -4.4649 H   0  0  0  0  0  0  0  0  0  0  0  0
    2.7591   15.1317   -3.3552 H   0  0  0  0  0  0  0  0  0  0  0  0
    2.4859   16.1517   -4.8082 H   0  0  0  0  0  0  0  0  0  0  0  0
    1.1747   15.9421   -3.5985 H   0  0  0  0  0  0  0  0  0  0  0  0
  1  2  2  0  0  0  0
  1  4  1  0  0  0  0
  1 13  1  0  0  0  0
  2  6  1  0  0  0  0
  3  4  2  0  0  0  0
  3  5  1  0  0  0  0
  5  6  2  0  0  0  0
  5  9  1  0  0  0  0
  6  7  1  0  0  0  0
  7  8  1  0  0  0  0
  7 10  2  3  0  0  0
  8  9  2  0  0  0  0
 10 15  1  0  0  0  0
 11 12  1  0  0  0  0
 11 13  2  0  0  0  0
 13 14  1  0  0  0  0
 15 16  1  0  0  0  0
 15 20  1  0  0  0  0
 16 17  2  0  0  0  0
 17 18  1  0  0  0  0
 18 19  1  0  0  0  0
 18 21  1  0  0  0  0
 19 20  2  0  0  0  0
 21 22  2  0  0  0  0
 21 25  1  0  0  0  0
 22 23  1  0  0  0  0
 23 24  1  0  0  0  0
 23 26  1  0  0  0  0
 24 25  2  0  0  0  0
 26 27  1  0  0  0  0
 27 28  1  0  0  0  0
 27 29  1  0  0  0  0
 27 30  1  0  0  0  0
  2 31  1  0  0  0  0
  3 32  1  0  0  0  0
  4 33  1  0  0  0  0
 10 34  1  0  0  0  0
 12 35  1  0  0  0  0
 12 36  1  0  0  0  0
 12 37  1  0  0  0  0
 14 38  1  0  0  0  0
 15 39  1  0  0  0  0
 16 40  1  0  0  0  0
 17 41  1  0  0  0  0
 18 42  1  0  0  0  0
 19 43  1  0  0  0  0
 20 44  1  0  0  0  0
 22 45  1  0  0  0  0
 25 46  1  0  0  0  0
 26 47  1  0  0  0  0
 26 48  1  0  0  0  0
 28 49  1  0  0  0  0
 29 50  1  0  0  0  0
 29 51  1  0  0  0  0
 29 52  1  0  0  0  0
 30 53  1  0  0  0  0
 30 54  1  0  0  0  0
 30 55  1  0  0  0  0
M  END
> <Name>
20

> <IC50[uM]>
0.016

$$$$
20
  -OEChem-05192314333D
 Structure written by MMmdl.
 55 58  0     1  0  0  0  0  0999 V2000
   -6.3740   12.3524  -12.0161 C   0  0  0  0  0  0  0  0  0  0  0  0
   -6.5100   11.8065  -10.7374 C   0  0  0  0  0  0  0  0  0  0  0  0
   -7.7222   10.5841  -13.0265 C   0  0  0  0  0  0  0  0  0  0  0  0
   -6.9887   11.7756  -13.1353 C   0  0  0  0  0  0  0  0  0  0  0  0
   -7.8163   10.0177  -11.7563 C   0  0  0  0  0  0  0  0  0  0  0  0
   -7.2425   10.6185  -10.6022 C   0  0  0  0  0  0  0  0  0  0  0  0
   -7.6172    9.7487   -9.5090 C   0  0  3  0  0  0  0  0  0  0  0  0
   -8.2846    8.7289   -9.9848 N   0  0  0  0  0  0  0  0  0  0  0  0
   -8.4176    8.8659  -11.2967 N   0  0  0  0  0  0  0  0  0  0  0  0
   -7.3368    9.8884   -8.0257 C   0  0  0  0  0  0  0  0  0  0  0  0
   -4.4023   13.6480  -11.4578 N   0  0  0  0  0  0  0  0  0  0  0  0
   -3.4623   14.7747  -11.4948 C   0  0  0  0  0  0  0  0  0  0  0  0
   -5.5331   13.6158  -12.1961 C   0  0  0  0  0  0  0  0  0  0  0  0
   -5.8776   14.5022  -12.9731 O   0  0  0  0  0  0  0  0  0  0  0  0
   -5.9585   10.4860   -7.7354 C   0  0  0  0  0  0  0  0  0  0  0  0
   -5.8494   11.7555   -7.1596 C   0  0  0  0  0  0  0  0  0  0  0  0
   -4.5968   12.3068   -6.9148 C   0  0  0  0  0  0  0  0  0  0  0  0
   -3.4468   11.5860   -7.2370 C   0  0  0  0  0  0  0  0  0  0  0  0
   -3.5513   10.3089   -7.8057 C   0  0  0  0  0  0  0  0  0  0  0  0
   -4.8090    9.7654   -8.0523 C   0  0  0  0  0  0  0  0  0  0  0  0
   -2.0901   12.1669   -6.9801 C   0  0  0  0  0  0  0  0  0  0  0  0
   -1.7479   13.4121   -6.4872 C   0  0  0  0  0  0  0  0  0  0  0  0
   -0.3990   13.4663   -6.4328 N   0  0  0  0  0  0  0  0  0  0  0  0
    0.1869   12.3691   -6.8386 N   0  0  0  0  0  0  0  0  0  0  0  0
   -0.8034   11.5628   -7.1902 C   0  0  0  0  0  0  0  0  0  0  0  0
    0.4389   14.5894   -5.9640 C   0  0  0  0  0  0  0  0  0  0  0  0
    1.5042   14.2139   -4.8744 C   0  0  0  0  0  0  0  0  0  0  0  0
    2.6302   13.6295   -5.4977 O   0  0  0  0  0  0  0  0  0  0  0  0
    0.9501   13.1612   -3.9053 C   0  0  0  0  0  0  0  0  0  0  0  0
    2.0179   15.4484   -4.1037 C   0  0  0  0  0  0  0  0  0  0  0  0
   -6.0641   12.2854   -9.8782 H   0  0  0  0  0  0  0  0  0  0  0  0
   -8.1913   10.1279  -13.8857 H   0  0  0  0  0  0  0  0  0  0  0  0
   -6.8965   12.2561  -14.0981 H   0  0  0  0  0  0  0  0  0  0  0  0
   -8.5567   10.3073   -9.3851 H   0  0  0  0  0  0  0  0  0  0  0  0
   -8.0357    9.5970   -7.2556 H   0  0  0  0  0  0  0  0  0  0  0  0
   -2.6221   14.5745  -10.8136 H   0  0  0  0  0  0  0  0  0  0  0  0
   -3.0817   14.9010  -12.5191 H   0  0  0  0  0  0  0  0  0  0  0  0
   -3.9787   15.6934  -11.1797 H   0  0  0  0  0  0  0  0  0  0  0  0
   -5.2393   15.2056  -12.9549 H   0  0  0  0  0  0  0  0  0  0  0  0
   -6.7407   12.3094   -6.9043 H   0  0  0  0  0  0  0  0  0  0  0  0
   -4.5143   13.2904   -6.4764 H   0  0  0  0  0  0  0  0  0  0  0  0
   -3.4456   11.1385   -6.2321 H   0  0  0  0  0  0  0  0  0  0  0  0
   -2.6607    9.7496   -8.0512 H   0  0  0  0  0  0  0  0  0  0  0  0
   -4.8939    8.7820   -8.4907 H   0  0  0  0  0  0  0  0  0  0  0  0
   -2.4321   14.1965   -6.1989 H   0  0  0  0  0  0  0  0  0  0  0  0
   -0.6606   10.5688   -7.5878 H   0  0  0  0  0  0  0  0  0  0  0  0
    0.9713   15.0036   -6.8329 H   0  0  0  0  0  0  0  0  0  0  0  0
   -0.2256   15.3572   -5.5409 H   0  0  0  0  0  0  0  0  0  0  0  0
    3.2752   13.4021   -4.8384 H   0  0  0  0  0  0  0  0  0  0  0  0
    1.7145   12.9160   -3.1533 H   0  0  0  0  0  0  0  0  0  0  0  0
    0.0563   13.5598   -3.4030 H   0  0  0  0  0  0  0  0  0  0  0  0
    0.6818   12.2530   -4.4649 H   0  0  0  0  0  0  0  0  0  0  0  0
    2.7591   15.1317   -3.3552 H   0  0  0  0  0  0  0  0  0  0  0  0
    2.4859   16.1517   -4.8082 H   0  0  0  0  0  0  0  0  0  0  0  0
    1.1747   15.9421   -3.5985 H   0  0  0  0  0  0  0  0  0  0  0  0
  1  2  2  0  0  0  0
  1  4  1  0  0  0  0
  1 13  1  0  0  0  0
  2  6  1  0  0  0  0
  3  4  2  0  0  0  0
  3  5  1  0  0  0  0
  5  6  2  0  0  0  0
  5  9  1  0  0  0  0
  6  7  1  0  0  0  0
  7  8  1  0  0  0  0
  7 10  1  0  0  0  0
  8  9  2  0  0  0  0
 10 15  2  0  0  0  0
 11 12  1  0  0  0  0
 11 13  2  0  0  0  0
 13 14  1  0  0  0  0
 15 16  1  0  0  0  0
 15 20  1  0  0  0  0
 16 17  2  0  0  0  0
 17 18  1  0  0  0  0
 18 19  1  0  0  0  0
 18 21  1  0  0  0  0
 19 20  2  0  0  0  0
 21 22  2  0  0  0  0
 21 25  1  0  0  0  0
 22 23  1  0  0  0  0
 23 24  1  0  0  0  0
 23 26  1  0  0  0  0
 24 25  2  0  0  0  0
 26 27  1  0  0  0  0
 27 28  1  0  0  0  0
 27 29  1  0  0  0  0
 27 30  1  0  0  0  0
  2 31  1  0  0  0  0
  3 32  1  0  0  0  0
  4 33  1  0  0  0  0
  7 34  1  0  0  0  0
 10 35  1  0  0  0  0
 12 36  1  0  0  0  0
 12 37  1  0  0  0  0
 12 38  1  0  0  0  0
 14 39  1  0  0  0  0
 16 40  1  0  0  0  0
 17 41  1  0  0  0  0
 18 42  1  0  0  0  0
 19 43  1  0  0  0  0
 20 44  1  0  0  0  0
 22 45  1  0  0  0  0
 25 46  1  0  0  0  0
 26 47  1  0  0  0  0
 26 48  1  0  0  0  0
 28 49  1  0  0  0  0
 29 50  1  0  0  0  0
 29 51  1  0  0  0  0
 29 52  1  0  0  0  0
 30 53  1  0  0  0  0
 30 54  1  0  0  0  0
 30 55  1  0  0  0  0
M  END
> <Name>
20

> <IC50[uM]>
0.016

$$$$
20
  -OEChem-05192314333D
 Structure written by MMmdl.
 55 58  0     1  0  0  0  0  0999 V2000
   -6.3740   12.3524  -12.0161 C   0  0  3  0  0  0  0  0  0  0  0  0
   -6.5100   11.8065  -10.7374 C   0  0  0  0  0  0  0  0  0  0  0  0
   -7.7222   10.5841  -13.0265 C   0  0  0  0  0  0  0  0  0  0  0  0
   -6.9887   11.7756  -13.1353 C   0  0  0  0  0  0  0  0  0  0  0  0
   -7.8163   10.0177  -11.7563 C   0  0  3  0  0  0  0  0  0  0  0  0
   -7.2425   10.6185  -10.6022 C   0  0  0  0  0  0  0  0  0  0  0  0
   -7.6172    9.7487   -9.5090 C   0  0  0  0  0  0  0  0  0  0  0  0
   -8.2846    8.7289   -9.9848 N   0  0  0  0  0  0  0  0  0  0  0  0
   -8.4176    8.8659  -11.2967 N   0  0  0  0  0  0  0  0  0  0  0  0
   -7.3368    9.8884   -8.0257 C   0  0  0  0  0  0  0  0  0  0  0  0
   -4.4023   13.6480  -11.4578 N   0  0  0  0  0  0  0  0  0  0  0  0
   -3.4623   14.7747  -11.4948 C   0  0  0  0  0  0  0  0  0  0  0  0
   -5.5331   13.6158  -12.1961 C   0  0  0  0  0  0  0  0  0  0  0  0
   -5.8776   14.5022  -12.9731 O   0  0  0  0  0  0  0  0  0  0  0  0
   -5.9585   10.4860   -7.7354 C   0  0  0  0  0  0  0  0  0  0  0  0
   -5.8494   11.7555   -7.1596 C   0  0  0  0  0  0  0  0  0  0  0  0
   -4.5968   12.3068   -6.9148 C   0  0  0  0  0  0  0  0  0  0  0  0
   -3.4468   11.5860   -7.2370 C   0  0  0  0  0  0  0  0  0  0  0  0
   -3.5513   10.3089   -7.8057 C   0  0  0  0  0  0  0  0  0  0  0  0
   -4.8090    9.7654   -8.0523 C   0  0  0  0  0  0  0  0  0  0  0  0
   -2.0901   12.1669   -6.9801 C   0  0  0  0  0  0  0  0  0  0  0  0
   -1.7479   13.4121   -6.4872 C   0  0  0  0  0  0  0  0  0  0  0  0
   -0.3990   13.4663   -6.4328 N   0  0  0  0  0  0  0  0  0  0  0  0
    0.1869   12.3691   -6.8386 N   0  0  0  0  0  0  0  0  0  0  0  0
   -0.8034   11.5628   -7.1902 C   0  0  0  0  0  0  0  0  0  0  0  0
    0.4389   14.5894   -5.9640 C   0  0  0  0  0  0  0  0  0  0  0  0
    1.5042   14.2139   -4.8744 C   0  0  0  0  0  0  0  0  0  0  0  0
    2.6302   13.6295   -5.4977 O   0  0  0  0  0  0  0  0  0  0  0  0
    0.9501   13.1612   -3.9053 C   0  0  0  0  0  0  0  0  0  0  0  0
    2.0179   15.4484   -4.1037 C   0  0  0  0  0  0  0  0  0  0  0  0
   -5.4811   11.7330  -12.1864 H   0  0  0  0  0  0  0  0  0  0  0  0
   -6.0641   12.2854   -9.8782 H   0  0  0  0  0  0  0  0  0  0  0  0
   -8.1913   10.1279  -13.8857 H   0  0  0  0  0  0  0  0  0  0  0  0
   -6.8965   12.2561  -14.0981 H   0  0  0  0  0  0  0  0  0  0  0  0
   -6.8834    9.4622  -11.9330 H   0  0  0  0  0  0  0  0  0  0  0  0
   -8.0357    9.5970   -7.2556 H   0  0  0  0  0  0  0  0  0  0  0  0
   -2.6221   14.5745  -10.8136 H   0  0  0  0  0  0  0  0  0  0  0  0
   -3.0817   14.9010  -12.5191 H   0  0  0  0  0  0  0  0  0  0  0  0
   -3.9787   15.6934  -11.1797 H   0  0  0  0  0  0  0  0  0  0  0  0
   -5.2393   15.2056  -12.9549 H   0  0  0  0  0  0  0  0  0  0  0  0
   -6.7407   12.3094   -6.9043 H   0  0  0  0  0  0  0  0  0  0  0  0
   -4.5143   13.2904   -6.4764 H   0  0  0  0  0  0  0  0  0  0  0  0
   -2.6607    9.7496   -8.0512 H   0  0  0  0  0  0  0  0  0  0  0  0
   -4.8939    8.7820   -8.4907 H   0  0  0  0  0  0  0  0  0  0  0  0
   -2.4321   14.1965   -6.1989 H   0  0  0  0  0  0  0  0  0  0  0  0
   -0.6606   10.5688   -7.5878 H   0  0  0  0  0  0  0  0  0  0  0  0
    0.9713   15.0036   -6.8329 H   0  0  0  0  0  0  0  0  0  0  0  0
   -0.2256   15.3572   -5.5409 H   0  0  0  0  0  0  0  0  0  0  0  0
    3.2752   13.4021   -4.8384 H   0  0  0  0  0  0  0  0  0  0  0  0
    1.7145   12.9160   -3.1533 H   0  0  0  0  0  0  0  0  0  0  0  0
    0.0563   13.5598   -3.4030 H   0  0  0  0  0  0  0  0  0  0  0  0
    0.6818   12.2530   -4.4649 H   0  0  0  0  0  0  0  0  0  0  0  0
    2.7591   15.1317   -3.3552 H   0  0  0  0  0  0  0  0  0  0  0  0
    2.4859   16.1517   -4.8082 H   0  0  0  0  0  0  0  0  0  0  0  0
    1.1747   15.9421   -3.5985 H   0  0  0  0  0  0  0  0  0  0  0  0
  1  2  1  0  0  0  0
  1  4  1  0  0  0  0
  1 13  1  0  0  0  0
  2  6  2  0  0  0  0
  3  4  2  0  0  0  0
  3  5  1  0  0  0  0
  5  6  1  0  0  0  0
  5  9  1  0  0  0  0
  6  7  1  0  0  0  0
  7  8  1  0  0  0  0
  7 10  2  3  0  0  0
  8  9  2  0  0  0  0
 10 15  1  0  0  0  0
 11 12  1  0  0  0  0
 11 13  2  0  0  0  0
 13 14  1  0  0  0  0
 15 16  2  0  0  0  0
 15 20  1  0  0  0  0
 16 17  1  0  0  0  0
 17 18  2  0  0  0  0
 18 19  1  0  0  0  0
 18 21  1  0  0  0  0
 19 20  2  0  0  0  0
 21 22  2  0  0  0  0
 21 25  1  0  0  0  0
 22 23  1  0  0  0  0
 23 24  1  0  0  0  0
 23 26  1  0  0  0  0
 24 25  2  0  0  0  0
 26 27  1  0  0  0  0
 27 28  1  0  0  0  0
 27 29  1  0  0  0  0
 27 30  1  0  0  0  0
  1 31  1  0  0  0  0
  2 32  1  0  0  0  0
  3 33  1  0  0  0  0
  4 34  1  0  0  0  0
  5 35  1  0  0  0  0
 10 36  1  0  0  0  0
 12 37  1  0  0  0  0
 12 38  1  0  0  0  0
 12 39  1  0  0  0  0
 14 40  1  0  0  0  0
 16 41  1  0  0  0  0
 17 42  1  0  0  0  0
 19 43  1  0  0  0  0
 20 44  1  0  0  0  0
 22 45  1  0  0  0  0
 25 46  1  0  0  0  0
 26 47  1  0  0  0  0
 26 48  1  0  0  0  0
 28 49  1  0  0  0  0
 29 50  1  0  0  0  0
 29 51  1  0  0  0  0
 29 52  1  0  0  0  0
 30 53  1  0  0  0  0
 30 54  1  0  0  0  0
 30 55  1  0  0  0  0
M  END
> <Name>
20

> <IC50[uM]>
0.016

$$$$
20
  -OEChem-05192314333D
 Structure written by MMmdl.
 55 58  0     1  0  0  0  0  0999 V2000
   -6.3740   12.3524  -12.0161 C   0  0  0  0  0  0  0  0  0  0  0  0
   -6.5100   11.8065  -10.7374 C   0  0  0  0  0  0  0  0  0  0  0  0
   -7.7222   10.5841  -13.0265 C   0  0  0  0  0  0  0  0  0  0  0  0
   -6.9887   11.7756  -13.1353 C   0  0  0  0  0  0  0  0  0  0  0  0
   -7.8163   10.0177  -11.7563 C   0  0  3  0  0  0  0  0  0  0  0  0
   -7.2425   10.6185  -10.6022 C   0  0  3  0  0  0  0  0  0  0  0  0
   -7.6172    9.7487   -9.5090 C   0  0  0  0  0  0  0  0  0  0  0  0
   -8.2846    8.7289   -9.9848 N   0  0  0  0  0  0  0  0  0  0  0  0
   -8.4176    8.8659  -11.2967 N   0  0  0  0  0  0  0  0  0  0  0  0
   -7.3368    9.8884   -8.0257 C   0  0  0  0  0  0  0  0  0  0  0  0
   -4.4023   13.6480  -11.4578 N   0  0  0  0  0  0  0  0  0  0  0  0
   -3.4623   14.7747  -11.4948 C   0  0  0  0  0  0  0  0  0  0  0  0
   -5.5331   13.6158  -12.1961 C   0  0  0  0  0  0  0  0  0  0  0  0
   -5.8776   14.5022  -12.9731 O   0  0  0  0  0  0  0  0  0  0  0  0
   -5.9585   10.4860   -7.7354 C   0  0  0  0  0  0  0  0  0  0  0  0
   -5.8494   11.7555   -7.1596 C   0  0  0  0  0  0  0  0  0  0  0  0
   -4.5968   12.3068   -6.9148 C   0  0  0  0  0  0  0  0  0  0  0  0
   -3.4468   11.5860   -7.2370 C   0  0  0  0  0  0  0  0  0  0  0  0
   -3.5513   10.3089   -7.8057 C   0  0  0  0  0  0  0  0  0  0  0  0
   -4.8090    9.7654   -8.0523 C   0  0  0  0  0  0  0  0  0  0  0  0
   -2.0901   12.1669   -6.9801 C   0  0  0  0  0  0  0  0  0  0  0  0
   -1.7479   13.4121   -6.4872 C   0  0  0  0  0  0  0  0  0  0  0  0
   -0.3990   13.4663   -6.4328 N   0  0  0  0  0  0  0  0  0  0  0  0
    0.1869   12.3691   -6.8386 N   0  0  0  0  0  0  0  0  0  0  0  0
   -0.8034   11.5628   -7.1902 C   0  0  0  0  0  0  0  0  0  0  0  0
    0.4389   14.5894   -5.9640 C   0  0  0  0  0  0  0  0  0  0  0  0
    1.5042   14.2139   -4.8744 C   0  0  0  0  0  0  0  0  0  0  0  0
    2.6302   13.6295   -5.4977 O   0  0  0  0  0  0  0  0  0  0  0  0
    0.9501   13.1612   -3.9053 C   0  0  0  0  0  0  0  0  0  0  0  0
    2.0179   15.4484   -4.1037 C   0  0  0  0  0  0  0  0  0  0  0  0
   -6.0641   12.2854   -9.8782 H   0  0  0  0  0  0  0  0  0  0  0  0
   -8.1913   10.1279  -13.8857 H   0  0  0  0  0  0  0  0  0  0  0  0
   -6.8965   12.2561  -14.0981 H   0  0  0  0  0  0  0  0  0  0  0  0
   -6.8834    9.4622  -11.9330 H   0  0  0  0  0  0  0  0  0  0  0  0
   -6.3233   10.0335  -10.7537 H   0  0  0  0  0  0  0  0  0  0  0  0
   -8.0357    9.5970   -7.2556 H   0  0  0  0  0  0  0  0  0  0  0  0
   -2.6221   14.5745  -10.8136 H   0  0  0  0  0  0  0  0  0  0  0  0
   -3.0817   14.9010  -12.5191 H   0  0  0  0  0  0  0  0  0  0  0  0
   -3.9787   15.6934  -11.1797 H   0  0  0  0  0  0  0  0  0  0  0  0
   -5.2393   15.2056  -12.9549 H   0  0  0  0  0  0  0  0  0  0  0  0
   -6.7407   12.3094   -6.9043 H   0  0  0  0  0  0  0  0  0  0  0  0
   -4.5143   13.2904   -6.4764 H   0  0  0  0  0  0  0  0  0  0  0  0
   -2.6607    9.7496   -8.0512 H   0  0  0  0  0  0  0  0  0  0  0  0
   -4.8939    8.7820   -8.4907 H   0  0  0  0  0  0  0  0  0  0  0  0
   -2.4321   14.1965   -6.1989 H   0  0  0  0  0  0  0  0  0  0  0  0
   -0.6606   10.5688   -7.5878 H   0  0  0  0  0  0  0  0  0  0  0  0
    0.9713   15.0036   -6.8329 H   0  0  0  0  0  0  0  0  0  0  0  0
   -0.2256   15.3572   -5.5409 H   0  0  0  0  0  0  0  0  0  0  0  0
    3.2752   13.4021   -4.8384 H   0  0  0  0  0  0  0  0  0  0  0  0
    1.7145   12.9160   -3.1533 H   0  0  0  0  0  0  0  0  0  0  0  0
    0.0563   13.5598   -3.4030 H   0  0  0  0  0  0  0  0  0  0  0  0
    0.6818   12.2530   -4.4649 H   0  0  0  0  0  0  0  0  0  0  0  0
    2.7591   15.1317   -3.3552 H   0  0  0  0  0  0  0  0  0  0  0  0
    2.4859   16.1517   -4.8082 H   0  0  0  0  0  0  0  0  0  0  0  0
    1.1747   15.9421   -3.5985 H   0  0  0  0  0  0  0  0  0  0  0  0
  1  2  2  0  0  0  0
  1  4  1  0  0  0  0
  1 13  1  0  0  0  0
  2  6  1  0  0  0  0
  3  4  2  0  0  0  0
  3  5  1  0  0  0  0
  5  6  1  0  0  0  0
  5  9  1  0  0  0  0
  6  7  1  0  0  0  0
  7  8  1  0  0  0  0
  7 10  2  3  0  0  0
  8  9  2  0  0  0  0
 10 15  1  0  0  0  0
 11 12  1  0  0  0  0
 11 13  2  0  0  0  0
 13 14  1  0  0  0  0
 15 16  2  0  0  0  0
 15 20  1  0  0  0  0
 16 17  1  0  0  0  0
 17 18  2  0  0  0  0
 18 19  1  0  0  0  0
 18 21  1  0  0  0  0
 19 20  2  0  0  0  0
 21 22  2  0  0  0  0
 21 25  1  0  0  0  0
 22 23  1  0  0  0  0
 23 24  1  0  0  0  0
 23 26  1  0  0  0  0
 24 25  2  0  0  0  0
 26 27  1  0  0  0  0
 27 28  1  0  0  0  0
 27 29  1  0  0  0  0
 27 30  1  0  0  0  0
  2 31  1  0  0  0  0
  3 32  1  0  0  0  0
  4 33  1  0  0  0  0
  5 34  1  0  0  0  0
  6 35  1  0  0  0  0
 10 36  1  0  0  0  0
 12 37  1  0  0  0  0
 12 38  1  0  0  0  0
 12 39  1  0  0  0  0
 14 40  1  0  0  0  0
 16 41  1  0  0  0  0
 17 42  1  0  0  0  0
 19 43  1  0  0  0  0
 20 44  1  0  0  0  0
 22 45  1  0  0  0  0
 25 46  1  0  0  0  0
 26 47  1  0  0  0  0
 26 48  1  0  0  0  0
 28 49  1  0  0  0  0
 29 50  1  0  0  0  0
 29 51  1  0  0  0  0
 29 52  1  0  0  0  0
 30 53  1  0  0  0  0
 30 54  1  0  0  0  0
 30 55  1  0  0  0  0
M  END
> <Name>
20

> <IC50[uM]>
0.016

$$$$
20
  -OEChem-05192314333D
 Structure written by MMmdl.
 55 58  0     1  0  0  0  0  0999 V2000
   -6.3740   12.3524  -12.0161 C   0  0  0  0  0  0  0  0  0  0  0  0
   -6.5100   11.8065  -10.7374 C   0  0  0  0  0  0  0  0  0  0  0  0
   -7.7222   10.5841  -13.0265 C   0  0  0  0  0  0  0  0  0  0  0  0
   -6.9887   11.7756  -13.1353 C   0  0  0  0  0  0  0  0  0  0  0  0
   -7.8163   10.0177  -11.7563 C   0  0  3  0  0  0  0  0  0  0  0  0
   -7.2425   10.6185  -10.6022 C   0  0  0  0  0  0  0  0  0  0  0  0
   -7.6172    9.7487   -9.5090 C   0  0  0  0  0  0  0  0  0  0  0  0
   -8.2846    8.7289   -9.9848 N   0  0  0  0  0  0  0  0  0  0  0  0
   -8.4176    8.8659  -11.2967 N   0  0  0  0  0  0  0  0  0  0  0  0
   -7.3368    9.8884   -8.0257 C   0  0  0  0  0  0  0  0  0  0  0  0
   -4.4023   13.6480  -11.4578 N   0  0  0  0  0  0  0  0  0  0  0  0
   -3.4623   14.7747  -11.4948 C   0  0  0  0  0  0  0  0  0  0  0  0
   -5.5331   13.6158  -12.1961 C   0  0  0  0  0  0  0  0  0  0  0  0
   -5.8776   14.5022  -12.9731 O   0  0  0  0  0  0  0  0  0  0  0  0
   -5.9585   10.4860   -7.7354 C   0  0  0  0  0  0  0  0  0  0  0  0
   -5.8494   11.7555   -7.1596 C   0  0  0  0  0  0  0  0  0  0  0  0
   -4.5968   12.3068   -6.9148 C   0  0  0  0  0  0  0  0  0  0  0  0
   -3.4468   11.5860   -7.2370 C   0  0  0  0  0  0  0  0  0  0  0  0
   -3.5513   10.3089   -7.8057 C   0  0  0  0  0  0  0  0  0  0  0  0
   -4.8090    9.7654   -8.0523 C   0  0  0  0  0  0  0  0  0  0  0  0
   -2.0901   12.1669   -6.9801 C   0  0  0  0  0  0  0  0  0  0  0  0
   -1.7479   13.4121   -6.4872 C   0  0  0  0  0  0  0  0  0  0  0  0
   -0.3990   13.4663   -6.4328 N   0  0  0  0  0  0  0  0  0  0  0  0
    0.1869   12.3691   -6.8386 N   0  0  0  0  0  0  0  0  0  0  0  0
   -0.8034   11.5628   -7.1902 C   0  0  0  0  0  0  0  0  0  0  0  0
    0.4389   14.5894   -5.9640 C   0  0  0  0  0  0  0  0  0  0  0  0
    1.5042   14.2139   -4.8744 C   0  0  0  0  0  0  0  0  0  0  0  0
    2.6302   13.6295   -5.4977 O   0  0  0  0  0  0  0  0  0  0  0  0
    0.9501   13.1612   -3.9053 C   0  0  0  0  0  0  0  0  0  0  0  0
    2.0179   15.4484   -4.1037 C   0  0  0  0  0  0  0  0  0  0  0  0
   -6.0641   12.2854   -9.8782 H   0  0  0  0  0  0  0  0  0  0  0  0
   -8.7448   10.7898  -13.3757 H   0  0  0  0  0  0  0  0  0  0  0  0
   -7.2513    9.8419  -13.6878 H   0  0  0  0  0  0  0  0  0  0  0  0
   -6.8965   12.2561  -14.0981 H   0  0  0  0  0  0  0  0  0  0  0  0
   -6.8834    9.4622  -11.9330 H   0  0  0  0  0  0  0  0  0  0  0  0
   -8.0357    9.5970   -7.2556 H   0  0  0  0  0  0  0  0  0  0  0  0
   -2.6221   14.5745  -10.8136 H   0  0  0  0  0  0  0  0  0  0  0  0
   -3.0817   14.9010  -12.5191 H   0  0  0  0  0  0  0  0  0  0  0  0
   -3.9787   15.6934  -11.1797 H   0  0  0  0  0  0  0  0  0  0  0  0
   -5.2393   15.2056  -12.9549 H   0  0  0  0  0  0  0  0  0  0  0  0
   -6.7407   12.3094   -6.9043 H   0  0  0  0  0  0  0  0  0  0  0  0
   -4.5143   13.2904   -6.4764 H   0  0  0  0  0  0  0  0  0  0  0  0
   -2.6607    9.7496   -8.0512 H   0  0  0  0  0  0  0  0  0  0  0  0
   -4.8939    8.7820   -8.4907 H   0  0  0  0  0  0  0  0  0  0  0  0
   -2.4321   14.1965   -6.1989 H   0  0  0  0  0  0  0  0  0  0  0  0
   -0.6606   10.5688   -7.5878 H   0  0  0  0  0  0  0  0  0  0  0  0
    0.9713   15.0036   -6.8329 H   0  0  0  0  0  0  0  0  0  0  0  0
   -0.2256   15.3572   -5.5409 H   0  0  0  0  0  0  0  0  0  0  0  0
    3.2752   13.4021   -4.8384 H   0  0  0  0  0  0  0  0  0  0  0  0
    1.7145   12.9160   -3.1533 H   0  0  0  0  0  0  0  0  0  0  0  0
    0.0563   13.5598   -3.4030 H   0  0  0  0  0  0  0  0  0  0  0  0
    0.6818   12.2530   -4.4649 H   0  0  0  0  0  0  0  0  0  0  0  0
    2.7591   15.1317   -3.3552 H   0  0  0  0  0  0  0  0  0  0  0  0
    2.4859   16.1517   -4.8082 H   0  0  0  0  0  0  0  0  0  0  0  0
    1.1747   15.9421   -3.5985 H   0  0  0  0  0  0  0  0  0  0  0  0
  1  2  1  0  0  0  0
  1  4  2  0  0  0  0
  1 13  1  0  0  0  0
  2  6  2  0  0  0  0
  3  4  1  0  0  0  0
  3  5  1  0  0  0  0
  5  6  1  0  0  0  0
  5  9  1  0  0  0  0
  6  7  1  0  0  0  0
  7  8  1  0  0  0  0
  7 10  2  3  0  0  0
  8  9  2  0  0  0  0
 10 15  1  0  0  0  0
 11 12  1  0  0  0  0
 11 13  2  0  0  0  0
 13 14  1  0  0  0  0
 15 16  2  0  0  0  0
 15 20  1  0  0  0  0
 16 17  1  0  0  0  0
 17 18  2  0  0  0  0
 18 19  1  0  0  0  0
 18 21  1  0  0  0  0
 19 20  2  0  0  0  0
 21 22  2  0  0  0  0
 21 25  1  0  0  0  0
 22 23  1  0  0  0  0
 23 24  1  0  0  0  0
 23 26  1  0  0  0  0
 24 25  2  0  0  0  0
 26 27  1  0  0  0  0
 27 28  1  0  0  0  0
 27 29  1  0  0  0  0
 27 30  1  0  0  0  0
  2 31  1  0  0  0  0
  3 32  1  0  0  0  0
  3 33  1  0  0  0  0
  4 34  1  0  0  0  0
  5 35  1  0  0  0  0
 10 36  1  0  0  0  0
 12 37  1  0  0  0  0
 12 38  1  0  0  0  0
 12 39  1  0  0  0  0
 14 40  1  0  0  0  0
 16 41  1  0  0  0  0
 17 42  1  0  0  0  0
 19 43  1  0  0  0  0
 20 44  1  0  0  0  0
 22 45  1  0  0  0  0
 25 46  1  0  0  0  0
 26 47  1  0  0  0  0
 26 48  1  0  0  0  0
 28 49  1  0  0  0  0
 29 50  1  0  0  0  0
 29 51  1  0  0  0  0
 29 52  1  0  0  0  0
 30 53  1  0  0  0  0
 30 54  1  0  0  0  0
 30 55  1  0  0  0  0
M  END
> <Name>
20

> <IC50[uM]>
0.016

$$$$
20
  -OEChem-05192314333D
 Structure written by MMmdl.
 55 58  0     1  0  0  0  0  0999 V2000
   -6.3740   12.3524  -12.0161 C   0  0  0  0  0  0  0  0  0  0  0  0
   -6.5100   11.8065  -10.7374 C   0  0  0  0  0  0  0  0  0  0  0  0
   -7.7222   10.5841  -13.0265 C   0  0  0  0  0  0  0  0  0  0  0  0
   -6.9887   11.7756  -13.1353 C   0  0  0  0  0  0  0  0  0  0  0  0
   -7.8163   10.0177  -11.7563 C   0  0  0  0  0  0  0  0  0  0  0  0
   -7.2425   10.6185  -10.6022 C   0  0  0  0  0  0  0  0  0  0  0  0
   -7.6172    9.7487   -9.5090 C   0  0  0  0  0  0  0  0  0  0  0  0
   -8.2846    8.7289   -9.9848 N   0  0  0  0  0  0  0  0  0  0  0  0
   -8.4176    8.8659  -11.2967 N   0  0  0  0  0  0  0  0  0  0  0  0
   -7.3368    9.8884   -8.0257 C   0  0  0  0  0  0  0  0  0  0  0  0
   -4.4023   13.6480  -11.4578 N   0  0  0  0  0  0  0  0  0  0  0  0
   -3.4623   14.7747  -11.4948 C   0  0  0  0  0  0  0  0  0  0  0  0
   -5.5331   13.6158  -12.1961 C   0  0  0  0  0  0  0  0  0  0  0  0
   -5.8776   14.5022  -12.9731 O   0  0  0  0  0  0  0  0  0  0  0  0
   -5.9585   10.4860   -7.7354 C   0  0  0  0  0  0  0  0  0  0  0  0
   -5.8494   11.7555   -7.1596 C   0  0  0  0  0  0  0  0  0  0  0  0
   -4.5968   12.3068   -6.9148 C   0  0  0  0  0  0  0  0  0  0  0  0
   -3.4468   11.5860   -7.2370 C   0  0  3  0  0  0  0  0  0  0  0  0
   -3.5513   10.3089   -7.8057 C   0  0  0  0  0  0  0  0  0  0  0  0
   -4.8090    9.7654   -8.0523 C   0  0  0  0  0  0  0  0  0  0  0  0
   -2.0901   12.1669   -6.9801 C   0  0  0  0  0  0  0  0  0  0  0  0
   -1.7479   13.4121   -6.4872 C   0  0  0  0  0  0  0  0  0  0  0  0
   -0.3990   13.4663   -6.4328 N   0  0  0  0  0  0  0  0  0  0  0  0
    0.1869   12.3691   -6.8386 N   0  0  0  0  0  0  0  0  0  0  0  0
   -0.8034   11.5628   -7.1902 C   0  0  0  0  0  0  0  0  0  0  0  0
    0.4389   14.5894   -5.9640 C   0  0  0  0  0  0  0  0  0  0  0  0
    1.5042   14.2139   -4.8744 C   0  0  0  0  0  0  0  0  0  0  0  0
    2.6302   13.6295   -5.4977 O   0  0  0  0  0  0  0  0  0  0  0  0
    0.9501   13.1612   -3.9053 C   0  0  0  0  0  0  0  0  0  0  0  0
    2.0179   15.4484   -4.1037 C   0  0  0  0  0  0  0  0  0  0  0  0
   -6.0641   12.2854   -9.8782 H   0  0  0  0  0  0  0  0  0  0  0  0
   -8.1913   10.1279  -13.8857 H   0  0  0  0  0  0  0  0  0  0  0  0
   -6.8965   12.2561  -14.0981 H   0  0  0  0  0  0  0  0  0  0  0  0
   -8.0357    9.5970   -7.2556 H   0  0  0  0  0  0  0  0  0  0  0  0
   -2.6221   14.5745  -10.8136 H   0  0  0  0  0  0  0  0  0  0  0  0
   -3.0817   14.9010  -12.5191 H   0  0  0  0  0  0  0  0  0  0  0  0
   -3.9787   15.6934  -11.1797 H   0  0  0  0  0  0  0  0  0  0  0  0
   -5.2393   15.2056  -12.9549 H   0  0  0  0  0  0  0  0  0  0  0  0
   -6.7407   12.3094   -6.9043 H   0  0  0  0  0  0  0  0  0  0  0  0
   -4.5489   13.2509   -7.4773 H   0  0  0  0  0  0  0  0  0  0  0  0
   -4.5477   12.5195   -5.8367 H   0  0  0  0  0  0  0  0  0  0  0  0
   -3.4456   11.1385   -6.2321 H   0  0  0  0  0  0  0  0  0  0  0  0
   -2.6607    9.7496   -8.0512 H   0  0  0  0  0  0  0  0  0  0  0  0
   -4.8939    8.7820   -8.4907 H   0  0  0  0  0  0  0  0  0  0  0  0
   -2.4321   14.1965   -6.1989 H   0  0  0  0  0  0  0  0  0  0  0  0
   -0.6606   10.5688   -7.5878 H   0  0  0  0  0  0  0  0  0  0  0  0
    0.9713   15.0036   -6.8329 H   0  0  0  0  0  0  0  0  0  0  0  0
   -0.2256   15.3572   -5.5409 H   0  0  0  0  0  0  0  0  0  0  0  0
    3.2752   13.4021   -4.8384 H   0  0  0  0  0  0  0  0  0  0  0  0
    1.7145   12.9160   -3.1533 H   0  0  0  0  0  0  0  0  0  0  0  0
    0.0563   13.5598   -3.4030 H   0  0  0  0  0  0  0  0  0  0  0  0
    0.6818   12.2530   -4.4649 H   0  0  0  0  0  0  0  0  0  0  0  0
    2.7591   15.1317   -3.3552 H   0  0  0  0  0  0  0  0  0  0  0  0
    2.4859   16.1517   -4.8082 H   0  0  0  0  0  0  0  0  0  0  0  0
    1.1747   15.9421   -3.5985 H   0  0  0  0  0  0  0  0  0  0  0  0
  1  2  2  0  0  0  0
  1  4  1  0  0  0  0
  1 13  1  0  0  0  0
  2  6  1  0  0  0  0
  3  4  2  0  0  0  0
  3  5  1  0  0  0  0
  5  6  2  0  0  0  0
  5  9  1  0  0  0  0
  6  7  1  0  0  0  0
  7  8  1  0  0  0  0
  7 10  2  3  0  0  0
  8  9  2  0  0  0  0
 10 15  1  0  0  0  0
 11 12  1  0  0  0  0
 11 13  2  0  0  0  0
 13 14  1  0  0  0  0
 15 16  2  0  0  0  0
 15 20  1  0  0  0  0
 16 17  1  0  0  0  0
 17 18  1  0  0  0  0
 18 19  1  0  0  0  0
 18 21  1  0  0  0  0
 19 20  2  0  0  0  0
 21 22  2  0  0  0  0
 21 25  1  0  0  0  0
 22 23  1  0  0  0  0
 23 24  1  0  0  0  0
 23 26  1  0  0  0  0
 24 25  2  0  0  0  0
 26 27  1  0  0  0  0
 27 28  1  0  0  0  0
 27 29  1  0  0  0  0
 27 30  1  0  0  0  0
  2 31  1  0  0  0  0
  3 32  1  0  0  0  0
  4 33  1  0  0  0  0
 10 34  1  0  0  0  0
 12 35  1  0  0  0  0
 12 36  1  0  0  0  0
 12 37  1  0  0  0  0
 14 38  1  0  0  0  0
 16 39  1  0  0  0  0
 17 40  1  0  0  0  0
 17 41  1  0  0  0  0
 18 42  1  0  0  0  0
 19 43  1  0  0  0  0
 20 44  1  0  0  0  0
 22 45  1  0  0  0  0
 25 46  1  0  0  0  0
 26 47  1  0  0  0  0
 26 48  1  0  0  0  0
 28 49  1  0  0  0  0
 29 50  1  0  0  0  0
 29 51  1  0  0  0  0
 29 52  1  0  0  0  0
 30 53  1  0  0  0  0
 30 54  1  0  0  0  0
 30 55  1  0  0  0  0
M  END
> <Name>
20

> <IC50[uM]>
0.016

$$$$
20
  -OEChem-05192314333D
 Structure written by MMmdl.
 55 58  0     1  0  0  0  0  0999 V2000
   -6.3740   12.3524  -12.0161 C   0  0  3  0  0  0  0  0  0  0  0  0
   -6.5100   11.8065  -10.7374 C   0  0  0  0  0  0  0  0  0  0  0  0
   -7.7222   10.5841  -13.0265 C   0  0  0  0  0  0  0  0  0  0  0  0
   -6.9887   11.7756  -13.1353 C   0  0  0  0  0  0  0  0  0  0  0  0
   -7.8163   10.0177  -11.7563 C   0  0  0  0  0  0  0  0  0  0  0  0
   -7.2425   10.6185  -10.6022 C   0  0  0  0  0  0  0  0  0  0  0  0
   -7.6172    9.7487   -9.5090 C   0  0  0  0  0  0  0  0  0  0  0  0
   -8.2846    8.7289   -9.9848 N   0  0  0  0  0  0  0  0  0  0  0  0
   -8.4176    8.8659  -11.2967 N   0  0  0  0  0  0  0  0  0  0  0  0
   -7.3368    9.8884   -8.0257 C   0  0  0  0  0  0  0  0  0  0  0  0
   -4.4023   13.6480  -11.4578 N   0  0  0  0  0  0  0  0  0  0  0  0
   -3.4623   14.7747  -11.4948 C   0  0  0  0  0  0  0  0  0  0  0  0
   -5.5331   13.6158  -12.1961 C   0  0  0  0  0  0  0  0  0  0  0  0
   -5.8776   14.5022  -12.9731 O   0  0  0  0  0  0  0  0  0  0  0  0
   -5.9585   10.4860   -7.7354 C   0  0  0  0  0  0  0  0  0  0  0  0
   -5.8494   11.7555   -7.1596 C   0  0  0  0  0  0  0  0  0  0  0  0
   -4.5968   12.3068   -6.9148 C   0  0  0  0  0  0  0  0  0  0  0  0
   -3.4468   11.5860   -7.2370 C   0  0  0  0  0  0  0  0  0  0  0  0
   -3.5513   10.3089   -7.8057 C   0  0  0  0  0  0  0  0  0  0  0  0
   -4.8090    9.7654   -8.0523 C   0  0  0  0  0  0  0  0  0  0  0  0
   -2.0901   12.1669   -6.9801 C   0  0  0  0  0  0  0  0  0  0  0  0
   -1.7479   13.4121   -6.4872 C   0  0  0  0  0  0  0  0  0  0  0  0
   -0.3990   13.4663   -6.4328 N   0  0  0  0  0  0  0  0  0  0  0  0
    0.1869   12.3691   -6.8386 N   0  0  0  0  0  0  0  0  0  0  0  0
   -0.8034   11.5628   -7.1902 C   0  0  0  0  0  0  0  0  0  0  0  0
    0.4389   14.5894   -5.9640 C   0  0  0  0  0  0  0  0  0  0  0  0
    1.5042   14.2139   -4.8744 C   0  0  0  0  0  0  0  0  0  0  0  0
    2.6302   13.6295   -5.4977 O   0  0  0  0  0  0  0  0  0  0  0  0
    0.9501   13.1612   -3.9053 C   0  0  0  0  0  0  0  0  0  0  0  0
    2.0179   15.4484   -4.1037 C   0  0  0  0  0  0  0  0  0  0  0  0
   -5.4811   11.7330  -12.1864 H   0  0  0  0  0  0  0  0  0  0  0  0
   -6.0641   12.2854   -9.8782 H   0  0  0  0  0  0  0  0  0  0  0  0
   -8.1913   10.1279  -13.8857 H   0  0  0  0  0  0  0  0  0  0  0  0
   -7.6795   12.5319  -13.5364 H   0  0  0  0  0  0  0  0  0  0  0  0
   -6.1895   11.5845  -13.8665 H   0  0  0  0  0  0  0  0  0  0  0  0
   -8.0357    9.5970   -7.2556 H   0  0  0  0  0  0  0  0  0  0  0  0
   -2.6221   14.5745  -10.8136 H   0  0  0  0  0  0  0  0  0  0  0  0
   -3.0817   14.9010  -12.5191 H   0  0  0  0  0  0  0  0  0  0  0  0
   -3.9787   15.6934  -11.1797 H   0  0  0  0  0  0  0  0  0  0  0  0
   -5.2393   15.2056  -12.9549 H   0  0  0  0  0  0  0  0  0  0  0  0
   -6.7407   12.3094   -6.9043 H   0  0  0  0  0  0  0  0  0  0  0  0
   -4.5143   13.2904   -6.4764 H   0  0  0  0  0  0  0  0  0  0  0  0
   -2.6607    9.7496   -8.0512 H   0  0  0  0  0  0  0  0  0  0  0  0
   -4.8939    8.7820   -8.4907 H   0  0  0  0  0  0  0  0  0  0  0  0
   -2.4321   14.1965   -6.1989 H   0  0  0  0  0  0  0  0  0  0  0  0
   -0.6606   10.5688   -7.5878 H   0  0  0  0  0  0  0  0  0  0  0  0
    0.9713   15.0036   -6.8329 H   0  0  0  0  0  0  0  0  0  0  0  0
   -0.2256   15.3572   -5.5409 H   0  0  0  0  0  0  0  0  0  0  0  0
    3.2752   13.4021   -4.8384 H   0  0  0  0  0  0  0  0  0  0  0  0
    1.7145   12.9160   -3.1533 H   0  0  0  0  0  0  0  0  0  0  0  0
    0.0563   13.5598   -3.4030 H   0  0  0  0  0  0  0  0  0  0  0  0
    0.6818   12.2530   -4.4649 H   0  0  0  0  0  0  0  0  0  0  0  0
    2.7591   15.1317   -3.3552 H   0  0  0  0  0  0  0  0  0  0  0  0
    2.4859   16.1517   -4.8082 H   0  0  0  0  0  0  0  0  0  0  0  0
    1.1747   15.9421   -3.5985 H   0  0  0  0  0  0  0  0  0  0  0  0
  1  2  1  0  0  0  0
  1  4  1  0  0  0  0
  1 13  1  0  0  0  0
  2  6  2  0  0  0  0
  3  4  1  0  0  0  0
  3  5  2  0  0  0  0
  5  6  1  0  0  0  0
  5  9  1  0  0  0  0
  6  7  1  0  0  0  0
  7  8  1  0  0  0  0
  7 10  2  3  0  0  0
  8  9  2  0  0  0  0
 10 15  1  0  0  0  0
 11 12  1  0  0  0  0
 11 13  2  0  0  0  0
 13 14  1  0  0  0  0
 15 16  2  0  0  0  0
 15 20  1  0  0  0  0
 16 17  1  0  0  0  0
 17 18  2  0  0  0  0
 18 19  1  0  0  0  0
 18 21  1  0  0  0  0
 19 20  2  0  0  0  0
 21 22  2  0  0  0  0
 21 25  1  0  0  0  0
 22 23  1  0  0  0  0
 23 24  1  0  0  0  0
 23 26  1  0  0  0  0
 24 25  2  0  0  0  0
 26 27  1  0  0  0  0
 27 28  1  0  0  0  0
 27 29  1  0  0  0  0
 27 30  1  0  0  0  0
  1 31  1  0  0  0  0
  2 32  1  0  0  0  0
  3 33  1  0  0  0  0
  4 34  1  0  0  0  0
  4 35  1  0  0  0  0
 10 36  1  0  0  0  0
 12 37  1  0  0  0  0
 12 38  1  0  0  0  0
 12 39  1  0  0  0  0
 14 40  1  0  0  0  0
 16 41  1  0  0  0  0
 17 42  1  0  0  0  0
 19 43  1  0  0  0  0
 20 44  1  0  0  0  0
 22 45  1  0  0  0  0
 25 46  1  0  0  0  0
 26 47  1  0  0  0  0
 26 48  1  0  0  0  0
 28 49  1  0  0  0  0
 29 50  1  0  0  0  0
 29 51  1  0  0  0  0
 29 52  1  0  0  0  0
 30 53  1  0  0  0  0
 30 54  1  0  0  0  0
 30 55  1  0  0  0  0
M  END
> <Name>
20

> <IC50[uM]>
0.016

$$$$
20
  -OEChem-05192314333D
 Structure written by MMmdl.
 55 58  0     1  0  0  0  0  0999 V2000
   -6.3740   12.3524  -12.0161 C   0  0  0  0  0  0  0  0  0  0  0  0
   -6.5100   11.8065  -10.7374 C   0  0  0  0  0  0  0  0  0  0  0  0
   -7.7222   10.5841  -13.0265 C   0  0  0  0  0  0  0  0  0  0  0  0
   -6.9887   11.7756  -13.1353 C   0  0  0  0  0  0  0  0  0  0  0  0
   -7.8163   10.0177  -11.7563 C   0  0  0  0  0  0  0  0  0  0  0  0
   -7.2425   10.6185  -10.6022 C   0  0  3  0  0  0  0  0  0  0  0  0
   -7.6172    9.7487   -9.5090 C   0  0  0  0  0  0  0  0  0  0  0  0
   -8.2846    8.7289   -9.9848 N   0  0  0  0  0  0  0  0  0  0  0  0
   -8.4176    8.8659  -11.2967 N   0  0  0  0  0  0  0  0  0  0  0  0
   -7.3368    9.8884   -8.0257 C   0  0  0  0  0  0  0  0  0  0  0  0
   -4.4023   13.6480  -11.4578 N   0  0  0  0  0  0  0  0  0  0  0  0
   -3.4623   14.7747  -11.4948 C   0  0  0  0  0  0  0  0  0  0  0  0
   -5.5331   13.6158  -12.1961 C   0  0  0  0  0  0  0  0  0  0  0  0
   -5.8776   14.5022  -12.9731 O   0  0  0  0  0  0  0  0  0  0  0  0
   -5.9585   10.4860   -7.7354 C   0  0  0  0  0  0  0  0  0  0  0  0
   -5.8494   11.7555   -7.1596 C   0  0  0  0  0  0  0  0  0  0  0  0
   -4.5968   12.3068   -6.9148 C   0  0  0  0  0  0  0  0  0  0  0  0
   -3.4468   11.5860   -7.2370 C   0  0  0  0  0  0  0  0  0  0  0  0
   -3.5513   10.3089   -7.8057 C   0  0  0  0  0  0  0  0  0  0  0  0
   -4.8090    9.7654   -8.0523 C   0  0  0  0  0  0  0  0  0  0  0  0
   -2.0901   12.1669   -6.9801 C   0  0  0  0  0  0  0  0  0  0  0  0
   -1.7479   13.4121   -6.4872 C   0  0  0  0  0  0  0  0  0  0  0  0
   -0.3990   13.4663   -6.4328 N   0  0  0  0  0  0  0  0  0  0  0  0
    0.1869   12.3691   -6.8386 N   0  0  0  0  0  0  0  0  0  0  0  0
   -0.8034   11.5628   -7.1902 C   0  0  0  0  0  0  0  0  0  0  0  0
    0.4389   14.5894   -5.9640 C   0  0  0  0  0  0  0  0  0  0  0  0
    1.5042   14.2139   -4.8744 C   0  0  0  0  0  0  0  0  0  0  0  0
    2.6302   13.6295   -5.4977 O   0  0  0  0  0  0  0  0  0  0  0  0
    0.9501   13.1612   -3.9053 C   0  0  0  0  0  0  0  0  0  0  0  0
    2.0179   15.4484   -4.1037 C   0  0  0  0  0  0  0  0  0  0  0  0
   -6.0641   12.2854   -9.8782 H   0  0  0  0  0  0  0  0  0  0  0  0
   -8.1913   10.1279  -13.8857 H   0  0  0  0  0  0  0  0  0  0  0  0
   -7.6795   12.5319  -13.5364 H   0  0  0  0  0  0  0  0  0  0  0  0
   -6.1895   11.5845  -13.8665 H   0  0  0  0  0  0  0  0  0  0  0  0
   -6.3233   10.0335  -10.7537 H   0  0  0  0  0  0  0  0  0  0  0  0
   -8.0357    9.5970   -7.2556 H   0  0  0  0  0  0  0  0  0  0  0  0
   -2.6221   14.5745  -10.8136 H   0  0  0  0  0  0  0  0  0  0  0  0
   -3.0817   14.9010  -12.5191 H   0  0  0  0  0  0  0  0  0  0  0  0
   -3.9787   15.6934  -11.1797 H   0  0  0  0  0  0  0  0  0  0  0  0
   -5.2393   15.2056  -12.9549 H   0  0  0  0  0  0  0  0  0  0  0  0
   -6.7407   12.3094   -6.9043 H   0  0  0  0  0  0  0  0  0  0  0  0
   -4.5143   13.2904   -6.4764 H   0  0  0  0  0  0  0  0  0  0  0  0
   -2.6607    9.7496   -8.0512 H   0  0  0  0  0  0  0  0  0  0  0  0
   -4.8939    8.7820   -8.4907 H   0  0  0  0  0  0  0  0  0  0  0  0
   -2.4321   14.1965   -6.1989 H   0  0  0  0  0  0  0  0  0  0  0  0
   -0.6606   10.5688   -7.5878 H   0  0  0  0  0  0  0  0  0  0  0  0
    0.9713   15.0036   -6.8329 H   0  0  0  0  0  0  0  0  0  0  0  0
   -0.2256   15.3572   -5.5409 H   0  0  0  0  0  0  0  0  0  0  0  0
    3.2752   13.4021   -4.8384 H   0  0  0  0  0  0  0  0  0  0  0  0
    1.7145   12.9160   -3.1533 H   0  0  0  0  0  0  0  0  0  0  0  0
    0.0563   13.5598   -3.4030 H   0  0  0  0  0  0  0  0  0  0  0  0
    0.6818   12.2530   -4.4649 H   0  0  0  0  0  0  0  0  0  0  0  0
    2.7591   15.1317   -3.3552 H   0  0  0  0  0  0  0  0  0  0  0  0
    2.4859   16.1517   -4.8082 H   0  0  0  0  0  0  0  0  0  0  0  0
    1.1747   15.9421   -3.5985 H   0  0  0  0  0  0  0  0  0  0  0  0
  1  2  2  0  0  0  0
  1  4  1  0  0  0  0
  1 13  1  0  0  0  0
  2  6  1  0  0  0  0
  3  4  1  0  0  0  0
  3  5  2  0  0  0  0
  5  6  1  0  0  0  0
  5  9  1  0  0  0  0
  6  7  1  0  0  0  0
  7  8  1  0  0  0  0
  7 10  2  3  0  0  0
  8  9  2  0  0  0  0
 10 15  1  0  0  0  0
 11 12  1  0  0  0  0
 11 13  2  0  0  0  0
 13 14  1  0  0  0  0
 15 16  2  0  0  0  0
 15 20  1  0  0  0  0
 16 17  1  0  0  0  0
 17 18  2  0  0  0  0
 18 19  1  0  0  0  0
 18 21  1  0  0  0  0
 19 20  2  0  0  0  0
 21 22  2  0  0  0  0
 21 25  1  0  0  0  0
 22 23  1  0  0  0  0
 23 24  1  0  0  0  0
 23 26  1  0  0  0  0
 24 25  2  0  0  0  0
 26 27  1  0  0  0  0
 27 28  1  0  0  0  0
 27 29  1  0  0  0  0
 27 30  1  0  0  0  0
  2 31  1  0  0  0  0
  3 32  1  0  0  0  0
  4 33  1  0  0  0  0
  4 34  1  0  0  0  0
  6 35  1  0  0  0  0
 10 36  1  0  0  0  0
 12 37  1  0  0  0  0
 12 38  1  0  0  0  0
 12 39  1  0  0  0  0
 14 40  1  0  0  0  0
 16 41  1  0  0  0  0
 17 42  1  0  0  0  0
 19 43  1  0  0  0  0
 20 44  1  0  0  0  0
 22 45  1  0  0  0  0
 25 46  1  0  0  0  0
 26 47  1  0  0  0  0
 26 48  1  0  0  0  0
 28 49  1  0  0  0  0
 29 50  1  0  0  0  0
 29 51  1  0  0  0  0
 29 52  1  0  0  0  0
 30 53  1  0  0  0  0
 30 54  1  0  0  0  0
 30 55  1  0  0  0  0
M  END
> <Name>
20

> <IC50[uM]>
0.016

$$$$
20
  -OEChem-05192314333D
 Structure written by MMmdl.
 55 58  0     0  0  0  0  0  0999 V2000
   -6.3740   12.3524  -12.0161 C   0  0  0  0  0  0  0  0  0  0  0  0
   -6.5100   11.8065  -10.7374 C   0  0  0  0  0  0  0  0  0  0  0  0
   -7.7222   10.5841  -13.0265 C   0  0  0  0  0  0  0  0  0  0  0  0
   -6.9887   11.7756  -13.1353 C   0  0  0  0  0  0  0  0  0  0  0  0
   -7.8163   10.0177  -11.7563 C   0  0  0  0  0  0  0  0  0  0  0  0
   -7.2425   10.6185  -10.6022 C   0  0  0  0  0  0  0  0  0  0  0  0
   -7.6172    9.7487   -9.5090 C   0  0  0  0  0  0  0  0  0  0  0  0
   -8.2846    8.7289   -9.9848 N   0  0  0  0  0  0  0  0  0  0  0  0
   -8.4176    8.8659  -11.2967 N   0  0  0  0  0  0  0  0  0  0  0  0
   -7.3368    9.8884   -8.0257 C   0  0  0  0  0  0  0  0  0  0  0  0
   -4.4023   13.6480  -11.4578 N   0  0  0  0  0  0  0  0  0  0  0  0
   -3.4623   14.7747  -11.4948 C   0  0  0  0  0  0  0  0  0  0  0  0
   -5.5331   13.6158  -12.1961 C   0  0  0  0  0  0  0  0  0  0  0  0
   -5.8776   14.5022  -12.9731 O   0  0  0  0  0  0  0  0  0  0  0  0
   -5.9585   10.4860   -7.7354 C   0  0  0  0  0  0  0  0  0  0  0  0
   -5.8494   11.7555   -7.1596 C   0  0  0  0  0  0  0  0  0  0  0  0
   -4.5968   12.3068   -6.9148 C   0  0  0  0  0  0  0  0  0  0  0  0
   -3.4468   11.5860   -7.2370 C   0  0  0  0  0  0  0  0  0  0  0  0
   -3.5513   10.3089   -7.8057 C   0  0  0  0  0  0  0  0  0  0  0  0
   -4.8090    9.7654   -8.0523 C   0  0  0  0  0  0  0  0  0  0  0  0
   -2.0901   12.1669   -6.9801 C   0  0  0  0  0  0  0  0  0  0  0  0
   -1.7479   13.4121   -6.4872 C   0  0  0  0  0  0  0  0  0  0  0  0
   -0.3990   13.4663   -6.4328 N   0  0  0  0  0  0  0  0  0  0  0  0
    0.1869   12.3691   -6.8386 N   0  0  0  0  0  0  0  0  0  0  0  0
   -0.8034   11.5628   -7.1902 C   0  0  0  0  0  0  0  0  0  0  0  0
    0.4389   14.5894   -5.9640 C   0  0  0  0  0  0  0  0  0  0  0  0
    1.5042   14.2139   -4.8744 C   0  0  0  0  0  0  0  0  0  0  0  0
    2.6302   13.6295   -5.4977 O   0  0  0  0  0  0  0  0  0  0  0  0
    0.9501   13.1612   -3.9053 C   0  0  0  0  0  0  0  0  0  0  0  0
    2.0179   15.4484   -4.1037 C   0  0  0  0  0  0  0  0  0  0  0  0
   -6.0641   12.2854   -9.8782 H   0  0  0  0  0  0  0  0  0  0  0  0
   -8.7448   10.7898  -13.3757 H   0  0  0  0  0  0  0  0  0  0  0  0
   -7.2513    9.8419  -13.6878 H   0  0  0  0  0  0  0  0  0  0  0  0
   -7.6795   12.5319  -13.5364 H   0  0  0  0  0  0  0  0  0  0  0  0
   -6.1895   11.5845  -13.8665 H   0  0  0  0  0  0  0  0  0  0  0  0
   -8.0357    9.5970   -7.2556 H   0  0  0  0  0  0  0  0  0  0  0  0
   -2.6221   14.5745  -10.8136 H   0  0  0  0  0  0  0  0  0  0  0  0
   -3.0817   14.9010  -12.5191 H   0  0  0  0  0  0  0  0  0  0  0  0
   -3.9787   15.6934  -11.1797 H   0  0  0  0  0  0  0  0  0  0  0  0
   -5.2393   15.2056  -12.9549 H   0  0  0  0  0  0  0  0  0  0  0  0
   -6.7407   12.3094   -6.9043 H   0  0  0  0  0  0  0  0  0  0  0  0
   -4.5143   13.2904   -6.4764 H   0  0  0  0  0  0  0  0  0  0  0  0
   -2.6607    9.7496   -8.0512 H   0  0  0  0  0  0  0  0  0  0  0  0
   -4.8939    8.7820   -8.4907 H   0  0  0  0  0  0  0  0  0  0  0  0
   -2.4321   14.1965   -6.1989 H   0  0  0  0  0  0  0  0  0  0  0  0
   -0.6606   10.5688   -7.5878 H   0  0  0  0  0  0  0  0  0  0  0  0
    0.9713   15.0036   -6.8329 H   0  0  0  0  0  0  0  0  0  0  0  0
   -0.2256   15.3572   -5.5409 H   0  0  0  0  0  0  0  0  0  0  0  0
    3.2752   13.4021   -4.8384 H   0  0  0  0  0  0  0  0  0  0  0  0
    1.7145   12.9160   -3.1533 H   0  0  0  0  0  0  0  0  0  0  0  0
    0.0563   13.5598   -3.4030 H   0  0  0  0  0  0  0  0  0  0  0  0
    0.6818   12.2530   -4.4649 H   0  0  0  0  0  0  0  0  0  0  0  0
    2.7591   15.1317   -3.3552 H   0  0  0  0  0  0  0  0  0  0  0  0
    2.4859   16.1517   -4.8082 H   0  0  0  0  0  0  0  0  0  0  0  0
    1.1747   15.9421   -3.5985 H   0  0  0  0  0  0  0  0  0  0  0  0
  1  2  2  0  0  0  0
  1  4  1  0  0  0  0
  1 13  1  0  0  0  0
  2  6  1  0  0  0  0
  3  4  1  0  0  0  0
  3  5  1  0  0  0  0
  5  6  2  0  0  0  0
  5  9  1  0  0  0  0
  6  7  1  0  0  0  0
  7  8  1  0  0  0  0
  7 10  2  3  0  0  0
  8  9  2  0  0  0  0
 10 15  1  0  0  0  0
 11 12  1  0  0  0  0
 11 13  2  0  0  0  0
 13 14  1  0  0  0  0
 15 16  2  0  0  0  0
 15 20  1  0  0  0  0
 16 17  1  0  0  0  0
 17 18  2  0  0  0  0
 18 19  1  0  0  0  0
 18 21  1  0  0  0  0
 19 20  2  0  0  0  0
 21 22  2  0  0  0  0
 21 25  1  0  0  0  0
 22 23  1  0  0  0  0
 23 24  1  0  0  0  0
 23 26  1  0  0  0  0
 24 25  2  0  0  0  0
 26 27  1  0  0  0  0
 27 28  1  0  0  0  0
 27 29  1  0  0  0  0
 27 30  1  0  0  0  0
  2 31  1  0  0  0  0
  3 32  1  0  0  0  0
  3 33  1  0  0  0  0
  4 34  1  0  0  0  0
  4 35  1  0  0  0  0
 10 36  1  0  0  0  0
 12 37  1  0  0  0  0
 12 38  1  0  0  0  0
 12 39  1  0  0  0  0
 14 40  1  0  0  0  0
 16 41  1  0  0  0  0
 17 42  1  0  0  0  0
 19 43  1  0  0  0  0
 20 44  1  0  0  0  0
 22 45  1  0  0  0  0
 25 46  1  0  0  0  0
 26 47  1  0  0  0  0
 26 48  1  0  0  0  0
 28 49  1  0  0  0  0
 29 50  1  0  0  0  0
 29 51  1  0  0  0  0
 29 52  1  0  0  0  0
 30 53  1  0  0  0  0
 30 54  1  0  0  0  0
 30 55  1  0  0  0  0
M  END
> <Name>
20

> <IC50[uM]>
0.016

$$$$
20
  -OEChem-05192314333D
 Structure written by MMmdl.
 55 58  0     1  0  0  0  0  0999 V2000
   -6.3740   12.3524  -12.0161 C   0  0  0  0  0  0  0  0  0  0  0  0
   -6.5100   11.8065  -10.7374 C   0  0  0  0  0  0  0  0  0  0  0  0
   -7.7222   10.5841  -13.0265 C   0  0  0  0  0  0  0  0  0  0  0  0
   -6.9887   11.7756  -13.1353 C   0  0  0  0  0  0  0  0  0  0  0  0
   -7.8163   10.0177  -11.7563 C   0  0  0  0  0  0  0  0  0  0  0  0
   -7.2425   10.6185  -10.6022 C   0  0  0  0  0  0  0  0  0  0  0  0
   -7.6172    9.7487   -9.5090 C   0  0  0  0  0  0  0  0  0  0  0  0
   -8.2846    8.7289   -9.9848 N   0  0  0  0  0  0  0  0  0  0  0  0
   -8.4176    8.8659  -11.2967 N   0  0  0  0  0  0  0  0  0  0  0  0
   -7.3368    9.8884   -8.0257 C   0  0  0  0  0  0  0  0  0  0  0  0
   -4.4023   13.6480  -11.4578 N   0  0  0  0  0  0  0  0  0  0  0  0
   -3.4623   14.7747  -11.4948 C   0  0  0  0  0  0  0  0  0  0  0  0
   -5.5331   13.6158  -12.1961 C   0  0  0  0  0  0  0  0  0  0  0  0
   -5.8776   14.5022  -12.9731 O   0  0  0  0  0  0  0  0  0  0  0  0
   -5.9585   10.4860   -7.7354 C   0  0  3  0  0  0  0  0  0  0  0  0
   -5.8494   11.7555   -7.1596 C   0  0  0  0  0  0  0  0  0  0  0  0
   -4.5968   12.3068   -6.9148 C   0  0  0  0  0  0  0  0  0  0  0  0
   -3.4468   11.5860   -7.2370 C   0  0  0  0  0  0  0  0  0  0  0  0
   -3.5513   10.3089   -7.8057 C   0  0  0  0  0  0  0  0  0  0  0  0
   -4.8090    9.7654   -8.0523 C   0  0  0  0  0  0  0  0  0  0  0  0
   -2.0901   12.1669   -6.9801 C   0  0  0  0  0  0  0  0  0  0  0  0
   -1.7479   13.4121   -6.4872 C   0  0  0  0  0  0  0  0  0  0  0  0
   -0.3990   13.4663   -6.4328 N   0  0  0  0  0  0  0  0  0  0  0  0
    0.1869   12.3691   -6.8386 N   0  0  0  0  0  0  0  0  0  0  0  0
   -0.8034   11.5628   -7.1902 C   0  0  0  0  0  0  0  0  0  0  0  0
    0.4389   14.5894   -5.9640 C   0  0  0  0  0  0  0  0  0  0  0  0
    1.5042   14.2139   -4.8744 C   0  0  0  0  0  0  0  0  0  0  0  0
    2.6302   13.6295   -5.4977 O   0  0  0  0  0  0  0  0  0  0  0  0
    0.9501   13.1612   -3.9053 C   0  0  0  0  0  0  0  0  0  0  0  0
    2.0179   15.4484   -4.1037 C   0  0  0  0  0  0  0  0  0  0  0  0
   -6.0641   12.2854   -9.8782 H   0  0  0  0  0  0  0  0  0  0  0  0
   -8.1913   10.1279  -13.8857 H   0  0  0  0  0  0  0  0  0  0  0  0
   -6.8965   12.2561  -14.0981 H   0  0  0  0  0  0  0  0  0  0  0  0
   -8.0357    9.5970   -7.2556 H   0  0  0  0  0  0  0  0  0  0  0  0
   -2.6221   14.5745  -10.8136 H   0  0  0  0  0  0  0  0  0  0  0  0
   -3.0817   14.9010  -12.5191 H   0  0  0  0  0  0  0  0  0  0  0  0
   -3.9787   15.6934  -11.1797 H   0  0  0  0  0  0  0  0  0  0  0  0
   -5.2393   15.2056  -12.9549 H   0  0  0  0  0  0  0  0  0  0  0  0
   -5.9701   10.0308   -6.7341 H   0  0  0  0  0  0  0  0  0  0  0  0
   -6.7407   12.3094   -6.9043 H   0  0  0  0  0  0  0  0  0  0  0  0
   -4.5143   13.2904   -6.4764 H   0  0  0  0  0  0  0  0  0  0  0  0
   -2.6607    9.7496   -8.0512 H   0  0  0  0  0  0  0  0  0  0  0  0
   -4.8619    8.8217   -7.4897 H   0  0  0  0  0  0  0  0  0  0  0  0
   -4.8560    9.5526   -9.1305 H   0  0  0  0  0  0  0  0  0  0  0  0
   -2.4321   14.1965   -6.1989 H   0  0  0  0  0  0  0  0  0  0  0  0
   -0.6606   10.5688   -7.5878 H   0  0  0  0  0  0  0  0  0  0  0  0
    0.9713   15.0036   -6.8329 H   0  0  0  0  0  0  0  0  0  0  0  0
   -0.2256   15.3572   -5.5409 H   0  0  0  0  0  0  0  0  0  0  0  0
    3.2752   13.4021   -4.8384 H   0  0  0  0  0  0  0  0  0  0  0  0
    1.7145   12.9160   -3.1533 H   0  0  0  0  0  0  0  0  0  0  0  0
    0.0563   13.5598   -3.4030 H   0  0  0  0  0  0  0  0  0  0  0  0
    0.6818   12.2530   -4.4649 H   0  0  0  0  0  0  0  0  0  0  0  0
    2.7591   15.1317   -3.3552 H   0  0  0  0  0  0  0  0  0  0  0  0
    2.4859   16.1517   -4.8082 H   0  0  0  0  0  0  0  0  0  0  0  0
    1.1747   15.9421   -3.5985 H   0  0  0  0  0  0  0  0  0  0  0  0
  1  2  2  0  0  0  0
  1  4  1  0  0  0  0
  1 13  1  0  0  0  0
  2  6  1  0  0  0  0
  3  4  2  0  0  0  0
  3  5  1  0  0  0  0
  5  6  2  0  0  0  0
  5  9  1  0  0  0  0
  6  7  1  0  0  0  0
  7  8  1  0  0  0  0
  7 10  2  3  0  0  0
  8  9  2  0  0  0  0
 10 15  1  0  0  0  0
 11 12  1  0  0  0  0
 11 13  2  0  0  0  0
 13 14  1  0  0  0  0
 15 16  1  0  0  0  0
 15 20  1  0  0  0  0
 16 17  2  0  0  0  0
 17 18  1  0  0  0  0
 18 19  2  0  0  0  0
 18 21  1  0  0  0  0
 19 20  1  0  0  0  0
 21 22  2  0  0  0  0
 21 25  1  0  0  0  0
 22 23  1  0  0  0  0
 23 24  1  0  0  0  0
 23 26  1  0  0  0  0
 24 25  2  0  0  0  0
 26 27  1  0  0  0  0
 27 28  1  0  0  0  0
 27 29  1  0  0  0  0
 27 30  1  0  0  0  0
  2 31  1  0  0  0  0
  3 32  1  0  0  0  0
  4 33  1  0  0  0  0
 10 34  1  0  0  0  0
 12 35  1  0  0  0  0
 12 36  1  0  0  0  0
 12 37  1  0  0  0  0
 14 38  1  0  0  0  0
 15 39  1  0  0  0  0
 16 40  1  0  0  0  0
 17 41  1  0  0  0  0
 19 42  1  0  0  0  0
 20 43  1  0  0  0  0
 20 44  1  0  0  0  0
 22 45  1  0  0  0  0
 25 46  1  0  0  0  0
 26 47  1  0  0  0  0
 26 48  1  0  0  0  0
 28 49  1  0  0  0  0
 29 50  1  0  0  0  0
 29 51  1  0  0  0  0
 29 52  1  0  0  0  0
 30 53  1  0  0  0  0
 30 54  1  0  0  0  0
 30 55  1  0  0  0  0
M  END
> <Name>
20

> <IC50[uM]>
0.016

$$$$
20
  -OEChem-05192314333D
 Structure written by MMmdl.
 55 58  0     1  0  0  0  0  0999 V2000
   -6.3740   12.3524  -12.0161 C   0  0  0  0  0  0  0  0  0  0  0  0
   -6.5100   11.8065  -10.7374 C   0  0  0  0  0  0  0  0  0  0  0  0
   -7.7222   10.5841  -13.0265 C   0  0  0  0  0  0  0  0  0  0  0  0
   -6.9887   11.7756  -13.1353 C   0  0  0  0  0  0  0  0  0  0  0  0
   -7.8163   10.0177  -11.7563 C   0  0  0  0  0  0  0  0  0  0  0  0
   -7.2425   10.6185  -10.6022 C   0  0  0  0  0  0  0  0  0  0  0  0
   -7.6172    9.7487   -9.5090 C   0  0  3  0  0  0  0  0  0  0  0  0
   -8.2846    8.7289   -9.9848 N   0  0  0  0  0  0  0  0  0  0  0  0
   -8.4176    8.8659  -11.2967 N   0  0  0  0  0  0  0  0  0  0  0  0
   -7.3368    9.8884   -8.0257 C   0  0  0  0  0  0  0  0  0  0  0  0
   -4.4023   13.6480  -11.4578 N   0  0  0  0  0  0  0  0  0  0  0  0
   -3.4623   14.7747  -11.4948 C   0  0  0  0  0  0  0  0  0  0  0  0
   -5.5331   13.6158  -12.1961 C   0  0  0  0  0  0  0  0  0  0  0  0
   -5.8776   14.5022  -12.9731 O   0  0  0  0  0  0  0  0  0  0  0  0
   -5.9585   10.4860   -7.7354 C   0  0  0  0  0  0  0  0  0  0  0  0
   -5.8494   11.7555   -7.1596 C   0  0  0  0  0  0  0  0  0  0  0  0
   -4.5968   12.3068   -6.9148 C   0  0  0  0  0  0  0  0  0  0  0  0
   -3.4468   11.5860   -7.2370 C   0  0  0  0  0  0  0  0  0  0  0  0
   -3.5513   10.3089   -7.8057 C   0  0  0  0  0  0  0  0  0  0  0  0
   -4.8090    9.7654   -8.0523 C   0  0  0  0  0  0  0  0  0  0  0  0
   -2.0901   12.1669   -6.9801 C   0  0  0  0  0  0  0  0  0  0  0  0
   -1.7479   13.4121   -6.4872 C   0  0  0  0  0  0  0  0  0  0  0  0
   -0.3990   13.4663   -6.4328 N   0  0  0  0  0  0  0  0  0  0  0  0
    0.1869   12.3691   -6.8386 N   0  0  0  0  0  0  0  0  0  0  0  0
   -0.8034   11.5628   -7.1902 C   0  0  0  0  0  0  0  0  0  0  0  0
    0.4389   14.5894   -5.9640 C   0  0  0  0  0  0  0  0  0  0  0  0
    1.5042   14.2139   -4.8744 C   0  0  0  0  0  0  0  0  0  0  0  0
    2.6302   13.6295   -5.4977 O   0  0  0  0  0  0  0  0  0  0  0  0
    0.9501   13.1612   -3.9053 C   0  0  0  0  0  0  0  0  0  0  0  0
    2.0179   15.4484   -4.1037 C   0  0  0  0  0  0  0  0  0  0  0  0
   -6.0641   12.2854   -9.8782 H   0  0  0  0  0  0  0  0  0  0  0  0
   -8.1913   10.1279  -13.8857 H   0  0  0  0  0  0  0  0  0  0  0  0
   -6.8965   12.2561  -14.0981 H   0  0  0  0  0  0  0  0  0  0  0  0
   -8.5567   10.3073   -9.3851 H   0  0  0  0  0  0  0  0  0  0  0  0
   -8.0357    9.5970   -7.2556 H   0  0  0  0  0  0  0  0  0  0  0  0
   -2.6221   14.5745  -10.8136 H   0  0  0  0  0  0  0  0  0  0  0  0
   -3.0817   14.9010  -12.5191 H   0  0  0  0  0  0  0  0  0  0  0  0
   -3.9787   15.6934  -11.1797 H   0  0  0  0  0  0  0  0  0  0  0  0
   -5.2393   15.2056  -12.9549 H   0  0  0  0  0  0  0  0  0  0  0  0
   -6.7407   12.3094   -6.9043 H   0  0  0  0  0  0  0  0  0  0  0  0
   -4.5143   13.2904   -6.4764 H   0  0  0  0  0  0  0  0  0  0  0  0
   -2.6607    9.7496   -8.0512 H   0  0  0  0  0  0  0  0  0  0  0  0
   -4.8619    8.8217   -7.4897 H   0  0  0  0  0  0  0  0  0  0  0  0
   -4.8560    9.5526   -9.1305 H   0  0  0  0  0  0  0  0  0  0  0  0
   -2.4321   14.1965   -6.1989 H   0  0  0  0  0  0  0  0  0  0  0  0
   -0.6606   10.5688   -7.5878 H   0  0  0  0  0  0  0  0  0  0  0  0
    0.9713   15.0036   -6.8329 H   0  0  0  0  0  0  0  0  0  0  0  0
   -0.2256   15.3572   -5.5409 H   0  0  0  0  0  0  0  0  0  0  0  0
    3.2752   13.4021   -4.8384 H   0  0  0  0  0  0  0  0  0  0  0  0
    1.7145   12.9160   -3.1533 H   0  0  0  0  0  0  0  0  0  0  0  0
    0.0563   13.5598   -3.4030 H   0  0  0  0  0  0  0  0  0  0  0  0
    0.6818   12.2530   -4.4649 H   0  0  0  0  0  0  0  0  0  0  0  0
    2.7591   15.1317   -3.3552 H   0  0  0  0  0  0  0  0  0  0  0  0
    2.4859   16.1517   -4.8082 H   0  0  0  0  0  0  0  0  0  0  0  0
    1.1747   15.9421   -3.5985 H   0  0  0  0  0  0  0  0  0  0  0  0
  1  2  2  0  0  0  0
  1  4  1  0  0  0  0
  1 13  1  0  0  0  0
  2  6  1  0  0  0  0
  3  4  2  0  0  0  0
  3  5  1  0  0  0  0
  5  6  2  0  0  0  0
  5  9  1  0  0  0  0
  6  7  1  0  0  0  0
  7  8  1  0  0  0  0
  7 10  1  0  0  0  0
  8  9  2  0  0  0  0
 10 15  2  3  0  0  0
 11 12  1  0  0  0  0
 11 13  2  0  0  0  0
 13 14  1  0  0  0  0
 15 16  1  0  0  0  0
 15 20  1  0  0  0  0
 16 17  2  0  0  0  0
 17 18  1  0  0  0  0
 18 19  2  0  0  0  0
 18 21  1  0  0  0  0
 19 20  1  0  0  0  0
 21 22  2  0  0  0  0
 21 25  1  0  0  0  0
 22 23  1  0  0  0  0
 23 24  1  0  0  0  0
 23 26  1  0  0  0  0
 24 25  2  0  0  0  0
 26 27  1  0  0  0  0
 27 28  1  0  0  0  0
 27 29  1  0  0  0  0
 27 30  1  0  0  0  0
  2 31  1  0  0  0  0
  3 32  1  0  0  0  0
  4 33  1  0  0  0  0
  7 34  1  0  0  0  0
 10 35  1  0  0  0  0
 12 36  1  0  0  0  0
 12 37  1  0  0  0  0
 12 38  1  0  0  0  0
 14 39  1  0  0  0  0
 16 40  1  0  0  0  0
 17 41  1  0  0  0  0
 19 42  1  0  0  0  0
 20 43  1  0  0  0  0
 20 44  1  0  0  0  0
 22 45  1  0  0  0  0
 25 46  1  0  0  0  0
 26 47  1  0  0  0  0
 26 48  1  0  0  0  0
 28 49  1  0  0  0  0
 29 50  1  0  0  0  0
 29 51  1  0  0  0  0
 29 52  1  0  0  0  0
 30 53  1  0  0  0  0
 30 54  1  0  0  0  0
 30 55  1  0  0  0  0
M  END
> <Name>
20

> <IC50[uM]>
0.016

$$$$
20
  -OEChem-05192314333D
 Structure written by MMmdl.
 55 58  0     0  0  0  0  0  0999 V2000
   -6.3740   12.3524  -12.0161 C   0  0  0  0  0  0  0  0  0  0  0  0
   -6.5100   11.8065  -10.7374 C   0  0  0  0  0  0  0  0  0  0  0  0
   -7.7222   10.5841  -13.0265 C   0  0  0  0  0  0  0  0  0  0  0  0
   -6.9887   11.7756  -13.1353 C   0  0  0  0  0  0  0  0  0  0  0  0
   -7.8163   10.0177  -11.7563 C   0  0  0  0  0  0  0  0  0  0  0  0
   -7.2425   10.6185  -10.6022 C   0  0  0  0  0  0  0  0  0  0  0  0
   -7.6172    9.7487   -9.5090 C   0  0  0  0  0  0  0  0  0  0  0  0
   -8.2846    8.7289   -9.9848 N   0  0  0  0  0  0  0  0  0  0  0  0
   -8.4176    8.8659  -11.2967 N   0  0  0  0  0  0  0  0  0  0  0  0
   -7.3368    9.8884   -8.0257 C   0  0  0  0  0  0  0  0  0  0  0  0
   -4.4023   13.6480  -11.4578 N   0  0  0  0  0  0  0  0  0  0  0  0
   -3.4623   14.7747  -11.4948 C   0  0  0  0  0  0  0  0  0  0  0  0
   -5.5331   13.6158  -12.1961 C   0  0  0  0  0  0  0  0  0  0  0  0
   -5.8776   14.5022  -12.9731 O   0  0  0  0  0  0  0  0  0  0  0  0
   -5.9585   10.4860   -7.7354 C   0  0  0  0  0  0  0  0  0  0  0  0
   -5.8494   11.7555   -7.1596 C   0  0  0  0  0  0  0  0  0  0  0  0
   -4.5968   12.3068   -6.9148 C   0  0  0  0  0  0  0  0  0  0  0  0
   -3.4468   11.5860   -7.2370 C   0  0  0  0  0  0  0  0  0  0  0  0
   -3.5513   10.3089   -7.8057 C   0  0  0  0  0  0  0  0  0  0  0  0
   -4.8090    9.7654   -8.0523 C   0  0  0  0  0  0  0  0  0  0  0  0
   -2.0901   12.1669   -6.9801 C   0  0  0  0  0  0  0  0  0  0  0  0
   -1.7479   13.4121   -6.4872 C   0  0  0  0  0  0  0  0  0  0  0  0
   -0.3990   13.4663   -6.4328 N   0  0  0  0  0  0  0  0  0  0  0  0
    0.1869   12.3691   -6.8386 N   0  0  0  0  0  0  0  0  0  0  0  0
   -0.8034   11.5628   -7.1902 C   0  0  0  0  0  0  0  0  0  0  0  0
    0.4389   14.5894   -5.9640 C   0  0  0  0  0  0  0  0  0  0  0  0
    1.5042   14.2139   -4.8744 C   0  0  0  0  0  0  0  0  0  0  0  0
    2.6302   13.6295   -5.4977 O   0  0  0  0  0  0  0  0  0  0  0  0
    0.9501   13.1612   -3.9053 C   0  0  0  0  0  0  0  0  0  0  0  0
    2.0179   15.4484   -4.1037 C   0  0  0  0  0  0  0  0  0  0  0  0
   -6.0641   12.2854   -9.8782 H   0  0  0  0  0  0  0  0  0  0  0  0
   -8.1913   10.1279  -13.8857 H   0  0  0  0  0  0  0  0  0  0  0  0
   -6.8965   12.2561  -14.0981 H   0  0  0  0  0  0  0  0  0  0  0  0
   -8.0357    9.5970   -7.2556 H   0  0  0  0  0  0  0  0  0  0  0  0
   -2.6221   14.5745  -10.8136 H   0  0  0  0  0  0  0  0  0  0  0  0
   -3.0817   14.9010  -12.5191 H   0  0  0  0  0  0  0  0  0  0  0  0
   -3.9787   15.6934  -11.1797 H   0  0  0  0  0  0  0  0  0  0  0  0
   -5.2393   15.2056  -12.9549 H   0  0  0  0  0  0  0  0  0  0  0  0
   -6.7407   12.3094   -6.9043 H   0  0  0  0  0  0  0  0  0  0  0  0
   -4.5489   13.2509   -7.4773 H   0  0  0  0  0  0  0  0  0  0  0  0
   -4.5477   12.5195   -5.8367 H   0  0  0  0  0  0  0  0  0  0  0  0
   -2.6607    9.7496   -8.0512 H   0  0  0  0  0  0  0  0  0  0  0  0
   -4.8619    8.8217   -7.4897 H   0  0  0  0  0  0  0  0  0  0  0  0
   -4.8560    9.5526   -9.1305 H   0  0  0  0  0  0  0  0  0  0  0  0
   -2.4321   14.1965   -6.1989 H   0  0  0  0  0  0  0  0  0  0  0  0
   -0.6606   10.5688   -7.5878 H   0  0  0  0  0  0  0  0  0  0  0  0
    0.9713   15.0036   -6.8329 H   0  0  0  0  0  0  0  0  0  0  0  0
   -0.2256   15.3572   -5.5409 H   0  0  0  0  0  0  0  0  0  0  0  0
    3.2752   13.4021   -4.8384 H   0  0  0  0  0  0  0  0  0  0  0  0
    1.7145   12.9160   -3.1533 H   0  0  0  0  0  0  0  0  0  0  0  0
    0.0563   13.5598   -3.4030 H   0  0  0  0  0  0  0  0  0  0  0  0
    0.6818   12.2530   -4.4649 H   0  0  0  0  0  0  0  0  0  0  0  0
    2.7591   15.1317   -3.3552 H   0  0  0  0  0  0  0  0  0  0  0  0
    2.4859   16.1517   -4.8082 H   0  0  0  0  0  0  0  0  0  0  0  0
    1.1747   15.9421   -3.5985 H   0  0  0  0  0  0  0  0  0  0  0  0
  1  2  2  0  0  0  0
  1  4  1  0  0  0  0
  1 13  1  0  0  0  0
  2  6  1  0  0  0  0
  3  4  2  0  0  0  0
  3  5  1  0  0  0  0
  5  6  2  0  0  0  0
  5  9  1  0  0  0  0
  6  7  1  0  0  0  0
  7  8  1  0  0  0  0
  7 10  2  3  0  0  0
  8  9  2  0  0  0  0
 10 15  1  0  0  0  0
 11 12  1  0  0  0  0
 11 13  2  0  0  0  0
 13 14  1  0  0  0  0
 15 16  2  0  0  0  0
 15 20  1  0  0  0  0
 16 17  1  0  0  0  0
 17 18  1  0  0  0  0
 18 19  2  0  0  0  0
 18 21  1  0  0  0  0
 19 20  1  0  0  0  0
 21 22  2  0  0  0  0
 21 25  1  0  0  0  0
 22 23  1  0  0  0  0
 23 24  1  0  0  0  0
 23 26  1  0  0  0  0
 24 25  2  0  0  0  0
 26 27  1  0  0  0  0
 27 28  1  0  0  0  0
 27 29  1  0  0  0  0
 27 30  1  0  0  0  0
  2 31  1  0  0  0  0
  3 32  1  0  0  0  0
  4 33  1  0  0  0  0
 10 34  1  0  0  0  0
 12 35  1  0  0  0  0
 12 36  1  0  0  0  0
 12 37  1  0  0  0  0
 14 38  1  0  0  0  0
 16 39  1  0  0  0  0
 17 40  1  0  0  0  0
 17 41  1  0  0  0  0
 19 42  1  0  0  0  0
 20 43  1  0  0  0  0
 20 44  1  0  0  0  0
 22 45  1  0  0  0  0
 25 46  1  0  0  0  0
 26 47  1  0  0  0  0
 26 48  1  0  0  0  0
 28 49  1  0  0  0  0
 29 50  1  0  0  0  0
 29 51  1  0  0  0  0
 29 52  1  0  0  0  0
 30 53  1  0  0  0  0
 30 54  1  0  0  0  0
 30 55  1  0  0  0  0
M  END
> <Name>
20

> <IC50[uM]>
0.016

$$$$
20
  -OEChem-05192314333D
 Structure written by MMmdl.
 55 58  0     0  0  0  0  0  0999 V2000
   -6.3740   12.3524  -12.0161 C   0  0  0  0  0  0  0  0  0  0  0  0
   -6.5100   11.8065  -10.7374 C   0  0  0  0  0  0  0  0  0  0  0  0
   -7.7222   10.5841  -13.0265 C   0  0  0  0  0  0  0  0  0  0  0  0
   -6.9887   11.7756  -13.1353 C   0  0  0  0  0  0  0  0  0  0  0  0
   -7.8163   10.0177  -11.7563 C   0  0  0  0  0  0  0  0  0  0  0  0
   -7.2425   10.6185  -10.6022 C   0  0  0  0  0  0  0  0  0  0  0  0
   -7.6172    9.7487   -9.5090 C   0  0  0  0  0  0  0  0  0  0  0  0
   -8.2846    8.7289   -9.9848 N   0  0  0  0  0  0  0  0  0  0  0  0
   -8.4176    8.8659  -11.2967 N   0  0  0  0  0  0  0  0  0  0  0  0
   -7.3368    9.8884   -8.0257 C   0  0  0  0  0  0  0  0  0  0  0  0
   -4.4023   13.6480  -11.4578 N   0  0  0  0  0  0  0  0  0  0  0  0
   -3.4623   14.7747  -11.4948 C   0  0  0  0  0  0  0  0  0  0  0  0
   -5.5331   13.6158  -12.1961 C   0  0  0  0  0  0  0  0  0  0  0  0
   -5.8776   14.5022  -12.9731 O   0  0  0  0  0  0  0  0  0  0  0  0
   -5.9585   10.4860   -7.7354 C   0  0  0  0  0  0  0  0  0  0  0  0
   -5.8494   11.7555   -7.1596 C   0  0  0  0  0  0  0  0  0  0  0  0
   -4.5968   12.3068   -6.9148 C   0  0  0  0  0  0  0  0  0  0  0  0
   -3.4468   11.5860   -7.2370 C   0  0  0  0  0  0  0  0  0  0  0  0
   -3.5513   10.3089   -7.8057 C   0  0  0  0  0  0  0  0  0  0  0  0
   -4.8090    9.7654   -8.0523 C   0  0  0  0  0  0  0  0  0  0  0  0
   -2.0901   12.1669   -6.9801 C   0  0  0  0  0  0  0  0  0  0  0  0
   -1.7479   13.4121   -6.4872 C   0  0  0  0  0  0  0  0  0  0  0  0
   -0.3990   13.4663   -6.4328 N   0  0  0  0  0  0  0  0  0  0  0  0
    0.1869   12.3691   -6.8386 N   0  0  0  0  0  0  0  0  0  0  0  0
   -0.8034   11.5628   -7.1902 C   0  0  0  0  0  0  0  0  0  0  0  0
    0.4389   14.5894   -5.9640 C   0  0  0  0  0  0  0  0  0  0  0  0
    1.5042   14.2139   -4.8744 C   0  0  0  0  0  0  0  0  0  0  0  0
    2.6302   13.6295   -5.4977 O   0  0  0  0  0  0  0  0  0  0  0  0
    0.9501   13.1612   -3.9053 C   0  0  0  0  0  0  0  0  0  0  0  0
    2.0179   15.4484   -4.1037 C   0  0  0  0  0  0  0  0  0  0  0  0
   -6.0641   12.2854   -9.8782 H   0  0  0  0  0  0  0  0  0  0  0  0
   -8.1913   10.1279  -13.8857 H   0  0  0  0  0  0  0  0  0  0  0  0
   -6.8965   12.2561  -14.0981 H   0  0  0  0  0  0  0  0  0  0  0  0
   -8.0357    9.5970   -7.2556 H   0  0  0  0  0  0  0  0  0  0  0  0
   -2.6221   14.5745  -10.8136 H   0  0  0  0  0  0  0  0  0  0  0  0
   -3.0817   14.9010  -12.5191 H   0  0  0  0  0  0  0  0  0  0  0  0
   -3.9787   15.6934  -11.1797 H   0  0  0  0  0  0  0  0  0  0  0  0
   -5.2393   15.2056  -12.9549 H   0  0  0  0  0  0  0  0  0  0  0  0
   -6.7407   12.3094   -6.9043 H   0  0  0  0  0  0  0  0  0  0  0  0
   -4.5143   13.2904   -6.4764 H   0  0  0  0  0  0  0  0  0  0  0  0
   -3.0245   10.3451   -8.7707 H   0  0  0  0  0  0  0  0  0  0  0  0
   -3.0307    9.6148   -7.1295 H   0  0  0  0  0  0  0  0  0  0  0  0
   -4.8619    8.8217   -7.4897 H   0  0  0  0  0  0  0  0  0  0  0  0
   -4.8560    9.5526   -9.1305 H   0  0  0  0  0  0  0  0  0  0  0  0
   -2.4321   14.1965   -6.1989 H   0  0  0  0  0  0  0  0  0  0  0  0
   -0.6606   10.5688   -7.5878 H   0  0  0  0  0  0  0  0  0  0  0  0
    0.9713   15.0036   -6.8329 H   0  0  0  0  0  0  0  0  0  0  0  0
   -0.2256   15.3572   -5.5409 H   0  0  0  0  0  0  0  0  0  0  0  0
    3.2752   13.4021   -4.8384 H   0  0  0  0  0  0  0  0  0  0  0  0
    1.7145   12.9160   -3.1533 H   0  0  0  0  0  0  0  0  0  0  0  0
    0.0563   13.5598   -3.4030 H   0  0  0  0  0  0  0  0  0  0  0  0
    0.6818   12.2530   -4.4649 H   0  0  0  0  0  0  0  0  0  0  0  0
    2.7591   15.1317   -3.3552 H   0  0  0  0  0  0  0  0  0  0  0  0
    2.4859   16.1517   -4.8082 H   0  0  0  0  0  0  0  0  0  0  0  0
    1.1747   15.9421   -3.5985 H   0  0  0  0  0  0  0  0  0  0  0  0
  1  2  2  0  0  0  0
  1  4  1  0  0  0  0
  1 13  1  0  0  0  0
  2  6  1  0  0  0  0
  3  4  2  0  0  0  0
  3  5  1  0  0  0  0
  5  6  2  0  0  0  0
  5  9  1  0  0  0  0
  6  7  1  0  0  0  0
  7  8  1  0  0  0  0
  7 10  2  3  0  0  0
  8  9  2  0  0  0  0
 10 15  1  0  0  0  0
 11 12  1  0  0  0  0
 11 13  2  0  0  0  0
 13 14  1  0  0  0  0
 15 16  2  0  0  0  0
 15 20  1  0  0  0  0
 16 17  1  0  0  0  0
 17 18  2  0  0  0  0
 18 19  1  0  0  0  0
 18 21  1  0  0  0  0
 19 20  1  0  0  0  0
 21 22  2  0  0  0  0
 21 25  1  0  0  0  0
 22 23  1  0  0  0  0
 23 24  1  0  0  0  0
 23 26  1  0  0  0  0
 24 25  2  0  0  0  0
 26 27  1  0  0  0  0
 27 28  1  0  0  0  0
 27 29  1  0  0  0  0
 27 30  1  0  0  0  0
  2 31  1  0  0  0  0
  3 32  1  0  0  0  0
  4 33  1  0  0  0  0
 10 34  1  0  0  0  0
 12 35  1  0  0  0  0
 12 36  1  0  0  0  0
 12 37  1  0  0  0  0
 14 38  1  0  0  0  0
 16 39  1  0  0  0  0
 17 40  1  0  0  0  0
 19 41  1  0  0  0  0
 19 42  1  0  0  0  0
 20 43  1  0  0  0  0
 20 44  1  0  0  0  0
 22 45  1  0  0  0  0
 25 46  1  0  0  0  0
 26 47  1  0  0  0  0
 26 48  1  0  0  0  0
 28 49  1  0  0  0  0
 29 50  1  0  0  0  0
 29 51  1  0  0  0  0
 29 52  1  0  0  0  0
 30 53  1  0  0  0  0
 30 54  1  0  0  0  0
 30 55  1  0  0  0  0
M  END
> <Name>
20

> <IC50[uM]>
0.016

$$$$
20
  -OEChem-05192314333D
 Structure written by MMmdl.
 55 58  0     1  0  0  0  0  0999 V2000
   -6.3740   12.3524  -12.0161 C   0  0  3  0  0  0  0  0  0  0  0  0
   -6.5100   11.8065  -10.7374 C   0  0  0  0  0  0  0  0  0  0  0  0
   -7.7222   10.5841  -13.0265 C   0  0  0  0  0  0  0  0  0  0  0  0
   -6.9887   11.7756  -13.1353 C   0  0  0  0  0  0  0  0  0  0  0  0
   -7.8163   10.0177  -11.7563 C   0  0  0  0  0  0  0  0  0  0  0  0
   -7.2425   10.6185  -10.6022 C   0  0  0  0  0  0  0  0  0  0  0  0
   -7.6172    9.7487   -9.5090 C   0  0  0  0  0  0  0  0  0  0  0  0
   -8.2846    8.7289   -9.9848 N   0  0  0  0  0  0  0  0  0  0  0  0
   -8.4176    8.8659  -11.2967 N   0  0  0  0  0  0  0  0  0  0  0  0
   -7.3368    9.8884   -8.0257 C   0  0  0  0  0  0  0  0  0  0  0  0
   -4.4023   13.6480  -11.4578 N   0  0  0  0  0  0  0  0  0  0  0  0
   -3.4623   14.7747  -11.4948 C   0  0  0  0  0  0  0  0  0  0  0  0
   -5.5331   13.6158  -12.1961 C   0  0  0  0  0  0  0  0  0  0  0  0
   -5.8776   14.5022  -12.9731 O   0  0  0  0  0  0  0  0  0  0  0  0
   -5.9585   10.4860   -7.7354 C   0  0  0  0  0  0  0  0  0  0  0  0
   -5.8494   11.7555   -7.1596 C   0  0  0  0  0  0  0  0  0  0  0  0
   -4.5968   12.3068   -6.9148 C   0  0  0  0  0  0  0  0  0  0  0  0
   -3.4468   11.5860   -7.2370 C   0  0  0  0  0  0  0  0  0  0  0  0
   -3.5513   10.3089   -7.8057 C   0  0  0  0  0  0  0  0  0  0  0  0
   -4.8090    9.7654   -8.0523 C   0  0  0  0  0  0  0  0  0  0  0  0
   -2.0901   12.1669   -6.9801 C   0  0  0  0  0  0  0  0  0  0  0  0
   -1.7479   13.4121   -6.4872 C   0  0  0  0  0  0  0  0  0  0  0  0
   -0.3990   13.4663   -6.4328 N   0  0  0  0  0  0  0  0  0  0  0  0
    0.1869   12.3691   -6.8386 N   0  0  0  0  0  0  0  0  0  0  0  0
   -0.8034   11.5628   -7.1902 C   0  0  0  0  0  0  0  0  0  0  0  0
    0.4389   14.5894   -5.9640 C   0  0  0  0  0  0  0  0  0  0  0  0
    1.5042   14.2139   -4.8744 C   0  0  0  0  0  0  0  0  0  0  0  0
    2.6302   13.6295   -5.4977 O   0  0  0  0  0  0  0  0  0  0  0  0
    0.9501   13.1612   -3.9053 C   0  0  0  0  0  0  0  0  0  0  0  0
    2.0179   15.4484   -4.1037 C   0  0  0  0  0  0  0  0  0  0  0  0
   -5.4811   11.7330  -12.1864 H   0  0  0  0  0  0  0  0  0  0  0  0
   -5.4969   11.6111  -10.3560 H   0  0  0  0  0  0  0  0  0  0  0  0
   -6.9986   12.5652  -10.1084 H   0  0  0  0  0  0  0  0  0  0  0  0
   -8.1913   10.1279  -13.8857 H   0  0  0  0  0  0  0  0  0  0  0  0
   -6.8965   12.2561  -14.0981 H   0  0  0  0  0  0  0  0  0  0  0  0
   -8.0357    9.5970   -7.2556 H   0  0  0  0  0  0  0  0  0  0  0  0
   -2.6221   14.5745  -10.8136 H   0  0  0  0  0  0  0  0  0  0  0  0
   -3.0817   14.9010  -12.5191 H   0  0  0  0  0  0  0  0  0  0  0  0
   -3.9787   15.6934  -11.1797 H   0  0  0  0  0  0  0  0  0  0  0  0
   -5.2393   15.2056  -12.9549 H   0  0  0  0  0  0  0  0  0  0  0  0
   -6.7407   12.3094   -6.9043 H   0  0  0  0  0  0  0  0  0  0  0  0
   -4.5143   13.2904   -6.4764 H   0  0  0  0  0  0  0  0  0  0  0  0
   -2.6607    9.7496   -8.0512 H   0  0  0  0  0  0  0  0  0  0  0  0
   -4.8939    8.7820   -8.4907 H   0  0  0  0  0  0  0  0  0  0  0  0
   -2.4321   14.1965   -6.1989 H   0  0  0  0  0  0  0  0  0  0  0  0
   -0.6606   10.5688   -7.5878 H   0  0  0  0  0  0  0  0  0  0  0  0
    0.9713   15.0036   -6.8329 H   0  0  0  0  0  0  0  0  0  0  0  0
   -0.2256   15.3572   -5.5409 H   0  0  0  0  0  0  0  0  0  0  0  0
    3.2752   13.4021   -4.8384 H   0  0  0  0  0  0  0  0  0  0  0  0
    1.7145   12.9160   -3.1533 H   0  0  0  0  0  0  0  0  0  0  0  0
    0.0563   13.5598   -3.4030 H   0  0  0  0  0  0  0  0  0  0  0  0
    0.6818   12.2530   -4.4649 H   0  0  0  0  0  0  0  0  0  0  0  0
    2.7591   15.1317   -3.3552 H   0  0  0  0  0  0  0  0  0  0  0  0
    2.4859   16.1517   -4.8082 H   0  0  0  0  0  0  0  0  0  0  0  0
    1.1747   15.9421   -3.5985 H   0  0  0  0  0  0  0  0  0  0  0  0
  1  2  1  0  0  0  0
  1  4  1  0  0  0  0
  1 13  1  0  0  0  0
  2  6  1  0  0  0  0
  3  4  2  0  0  0  0
  3  5  1  0  0  0  0
  5  6  2  0  0  0  0
  5  9  1  0  0  0  0
  6  7  1  0  0  0  0
  7  8  1  0  0  0  0
  7 10  2  3  0  0  0
  8  9  2  0  0  0  0
 10 15  1  0  0  0  0
 11 12  1  0  0  0  0
 11 13  2  0  0  0  0
 13 14  1  0  0  0  0
 15 16  2  0  0  0  0
 15 20  1  0  0  0  0
 16 17  1  0  0  0  0
 17 18  2  0  0  0  0
 18 19  1  0  0  0  0
 18 21  1  0  0  0  0
 19 20  2  0  0  0  0
 21 22  2  0  0  0  0
 21 25  1  0  0  0  0
 22 23  1  0  0  0  0
 23 24  1  0  0  0  0
 23 26  1  0  0  0  0
 24 25  2  0  0  0  0
 26 27  1  0  0  0  0
 27 28  1  0  0  0  0
 27 29  1  0  0  0  0
 27 30  1  0  0  0  0
  1 31  1  0  0  0  0
  2 32  1  0  0  0  0
  2 33  1  0  0  0  0
  3 34  1  0  0  0  0
  4 35  1  0  0  0  0
 10 36  1  0  0  0  0
 12 37  1  0  0  0  0
 12 38  1  0  0  0  0
 12 39  1  0  0  0  0
 14 40  1  0  0  0  0
 16 41  1  0  0  0  0
 17 42  1  0  0  0  0
 19 43  1  0  0  0  0
 20 44  1  0  0  0  0
 22 45  1  0  0  0  0
 25 46  1  0  0  0  0
 26 47  1  0  0  0  0
 26 48  1  0  0  0  0
 28 49  1  0  0  0  0
 29 50  1  0  0  0  0
 29 51  1  0  0  0  0
 29 52  1  0  0  0  0
 30 53  1  0  0  0  0
 30 54  1  0  0  0  0
 30 55  1  0  0  0  0
M  END
> <Name>
20

> <IC50[uM]>
0.016

$$$$
20
  -OEChem-05192314333D
 Structure written by MMmdl.
 55 58  0     1  0  0  0  0  0999 V2000
   -6.3740   12.3524  -12.0161 C   0  0  0  0  0  0  0  0  0  0  0  0
   -6.5100   11.8065  -10.7374 C   0  0  0  0  0  0  0  0  0  0  0  0
   -7.7222   10.5841  -13.0265 C   0  0  0  0  0  0  0  0  0  0  0  0
   -6.9887   11.7756  -13.1353 C   0  0  0  0  0  0  0  0  0  0  0  0
   -7.8163   10.0177  -11.7563 C   0  0  0  0  0  0  0  0  0  0  0  0
   -7.2425   10.6185  -10.6022 C   0  0  3  0  0  0  0  0  0  0  0  0
   -7.6172    9.7487   -9.5090 C   0  0  0  0  0  0  0  0  0  0  0  0
   -8.2846    8.7289   -9.9848 N   0  0  0  0  0  0  0  0  0  0  0  0
   -8.4176    8.8659  -11.2967 N   0  0  0  0  0  0  0  0  0  0  0  0
   -7.3368    9.8884   -8.0257 C   0  0  0  0  0  0  0  0  0  0  0  0
   -4.4023   13.6480  -11.4578 N   0  0  0  0  0  0  0  0  0  0  0  0
   -3.4623   14.7747  -11.4948 C   0  0  0  0  0  0  0  0  0  0  0  0
   -5.5331   13.6158  -12.1961 C   0  0  0  0  0  0  0  0  0  0  0  0
   -5.8776   14.5022  -12.9731 O   0  0  0  0  0  0  0  0  0  0  0  0
   -5.9585   10.4860   -7.7354 C   0  0  0  0  0  0  0  0  0  0  0  0
   -5.8494   11.7555   -7.1596 C   0  0  0  0  0  0  0  0  0  0  0  0
   -4.5968   12.3068   -6.9148 C   0  0  0  0  0  0  0  0  0  0  0  0
   -3.4468   11.5860   -7.2370 C   0  0  0  0  0  0  0  0  0  0  0  0
   -3.5513   10.3089   -7.8057 C   0  0  0  0  0  0  0  0  0  0  0  0
   -4.8090    9.7654   -8.0523 C   0  0  0  0  0  0  0  0  0  0  0  0
   -2.0901   12.1669   -6.9801 C   0  0  0  0  0  0  0  0  0  0  0  0
   -1.7479   13.4121   -6.4872 C   0  0  0  0  0  0  0  0  0  0  0  0
   -0.3990   13.4663   -6.4328 N   0  0  0  0  0  0  0  0  0  0  0  0
    0.1869   12.3691   -6.8386 N   0  0  0  0  0  0  0  0  0  0  0  0
   -0.8034   11.5628   -7.1902 C   0  0  0  0  0  0  0  0  0  0  0  0
    0.4389   14.5894   -5.9640 C   0  0  0  0  0  0  0  0  0  0  0  0
    1.5042   14.2139   -4.8744 C   0  0  0  0  0  0  0  0  0  0  0  0
    2.6302   13.6295   -5.4977 O   0  0  0  0  0  0  0  0  0  0  0  0
    0.9501   13.1612   -3.9053 C   0  0  0  0  0  0  0  0  0  0  0  0
    2.0179   15.4484   -4.1037 C   0  0  0  0  0  0  0  0  0  0  0  0
   -5.4969   11.6111  -10.3560 H   0  0  0  0  0  0  0  0  0  0  0  0
   -6.9986   12.5652  -10.1084 H   0  0  0  0  0  0  0  0  0  0  0  0
   -8.1913   10.1279  -13.8857 H   0  0  0  0  0  0  0  0  0  0  0  0
   -6.8965   12.2561  -14.0981 H   0  0  0  0  0  0  0  0  0  0  0  0
   -6.3233   10.0335  -10.7537 H   0  0  0  0  0  0  0  0  0  0  0  0
   -8.0357    9.5970   -7.2556 H   0  0  0  0  0  0  0  0  0  0  0  0
   -2.6221   14.5745  -10.8136 H   0  0  0  0  0  0  0  0  0  0  0  0
   -3.0817   14.9010  -12.5191 H   0  0  0  0  0  0  0  0  0  0  0  0
   -3.9787   15.6934  -11.1797 H   0  0  0  0  0  0  0  0  0  0  0  0
   -5.2393   15.2056  -12.9549 H   0  0  0  0  0  0  0  0  0  0  0  0
   -6.7407   12.3094   -6.9043 H   0  0  0  0  0  0  0  0  0  0  0  0
   -4.5143   13.2904   -6.4764 H   0  0  0  0  0  0  0  0  0  0  0  0
   -2.6607    9.7496   -8.0512 H   0  0  0  0  0  0  0  0  0  0  0  0
   -4.8939    8.7820   -8.4907 H   0  0  0  0  0  0  0  0  0  0  0  0
   -2.4321   14.1965   -6.1989 H   0  0  0  0  0  0  0  0  0  0  0  0
   -0.6606   10.5688   -7.5878 H   0  0  0  0  0  0  0  0  0  0  0  0
    0.9713   15.0036   -6.8329 H   0  0  0  0  0  0  0  0  0  0  0  0
   -0.2256   15.3572   -5.5409 H   0  0  0  0  0  0  0  0  0  0  0  0
    3.2752   13.4021   -4.8384 H   0  0  0  0  0  0  0  0  0  0  0  0
    1.7145   12.9160   -3.1533 H   0  0  0  0  0  0  0  0  0  0  0  0
    0.0563   13.5598   -3.4030 H   0  0  0  0  0  0  0  0  0  0  0  0
    0.6818   12.2530   -4.4649 H   0  0  0  0  0  0  0  0  0  0  0  0
    2.7591   15.1317   -3.3552 H   0  0  0  0  0  0  0  0  0  0  0  0
    2.4859   16.1517   -4.8082 H   0  0  0  0  0  0  0  0  0  0  0  0
    1.1747   15.9421   -3.5985 H   0  0  0  0  0  0  0  0  0  0  0  0
  1  2  1  0  0  0  0
  1  4  2  0  0  0  0
  1 13  1  0  0  0  0
  2  6  1  0  0  0  0
  3  4  1  0  0  0  0
  3  5  2  0  0  0  0
  5  6  1  0  0  0  0
  5  9  1  0  0  0  0
  6  7  1  0  0  0  0
  7  8  1  0  0  0  0
  7 10  2  3  0  0  0
  8  9  2  0  0  0  0
 10 15  1  0  0  0  0
 11 12  1  0  0  0  0
 11 13  2  0  0  0  0
 13 14  1  0  0  0  0
 15 16  2  0  0  0  0
 15 20  1  0  0  0  0
 16 17  1  0  0  0  0
 17 18  2  0  0  0  0
 18 19  1  0  0  0  0
 18 21  1  0  0  0  0
 19 20  2  0  0  0  0
 21 22  2  0  0  0  0
 21 25  1  0  0  0  0
 22 23  1  0  0  0  0
 23 24  1  0  0  0  0
 23 26  1  0  0  0  0
 24 25  2  0  0  0  0
 26 27  1  0  0  0  0
 27 28  1  0  0  0  0
 27 29  1  0  0  0  0
 27 30  1  0  0  0  0
  2 31  1  0  0  0  0
  2 32  1  0  0  0  0
  3 33  1  0  0  0  0
  4 34  1  0  0  0  0
  6 35  1  0  0  0  0
 10 36  1  0  0  0  0
 12 37  1  0  0  0  0
 12 38  1  0  0  0  0
 12 39  1  0  0  0  0
 14 40  1  0  0  0  0
 16 41  1  0  0  0  0
 17 42  1  0  0  0  0
 19 43  1  0  0  0  0
 20 44  1  0  0  0  0
 22 45  1  0  0  0  0
 25 46  1  0  0  0  0
 26 47  1  0  0  0  0
 26 48  1  0  0  0  0
 28 49  1  0  0  0  0
 29 50  1  0  0  0  0
 29 51  1  0  0  0  0
 29 52  1  0  0  0  0
 30 53  1  0  0  0  0
 30 54  1  0  0  0  0
 30 55  1  0  0  0  0
M  END
> <Name>
20

> <IC50[uM]>
0.016

$$$$
20
  -OEChem-05192314333D
 Structure written by MMmdl.
 55 58  0     0  0  0  0  0  0999 V2000
   -6.3740   12.3524  -12.0161 C   0  0  0  0  0  0  0  0  0  0  0  0
   -6.5100   11.8065  -10.7374 C   0  0  0  0  0  0  0  0  0  0  0  0
   -7.7222   10.5841  -13.0265 C   0  0  0  0  0  0  0  0  0  0  0  0
   -6.9887   11.7756  -13.1353 C   0  0  0  0  0  0  0  0  0  0  0  0
   -7.8163   10.0177  -11.7563 C   0  0  0  0  0  0  0  0  0  0  0  0
   -7.2425   10.6185  -10.6022 C   0  0  0  0  0  0  0  0  0  0  0  0
   -7.6172    9.7487   -9.5090 C   0  0  0  0  0  0  0  0  0  0  0  0
   -8.2846    8.7289   -9.9848 N   0  0  0  0  0  0  0  0  0  0  0  0
   -8.4176    8.8659  -11.2967 N   0  0  0  0  0  0  0  0  0  0  0  0
   -7.3368    9.8884   -8.0257 C   0  0  0  0  0  0  0  0  0  0  0  0
   -4.4023   13.6480  -11.4578 N   0  0  0  0  0  0  0  0  0  0  0  0
   -3.4623   14.7747  -11.4948 C   0  0  0  0  0  0  0  0  0  0  0  0
   -5.5331   13.6158  -12.1961 C   0  0  0  0  0  0  0  0  0  0  0  0
   -5.8776   14.5022  -12.9731 O   0  0  0  0  0  0  0  0  0  0  0  0
   -5.9585   10.4860   -7.7354 C   0  0  0  0  0  0  0  0  0  0  0  0
   -5.8494   11.7555   -7.1596 C   0  0  0  0  0  0  0  0  0  0  0  0
   -4.5968   12.3068   -6.9148 C   0  0  0  0  0  0  0  0  0  0  0  0
   -3.4468   11.5860   -7.2370 C   0  0  0  0  0  0  0  0  0  0  0  0
   -3.5513   10.3089   -7.8057 C   0  0  0  0  0  0  0  0  0  0  0  0
   -4.8090    9.7654   -8.0523 C   0  0  0  0  0  0  0  0  0  0  0  0
   -2.0901   12.1669   -6.9801 C   0  0  0  0  0  0  0  0  0  0  0  0
   -1.7479   13.4121   -6.4872 C   0  0  0  0  0  0  0  0  0  0  0  0
   -0.3990   13.4663   -6.4328 N   0  0  0  0  0  0  0  0  0  0  0  0
    0.1869   12.3691   -6.8386 N   0  0  0  0  0  0  0  0  0  0  0  0
   -0.8034   11.5628   -7.1902 C   0  0  0  0  0  0  0  0  0  0  0  0
    0.4389   14.5894   -5.9640 C   0  0  0  0  0  0  0  0  0  0  0  0
    1.5042   14.2139   -4.8744 C   0  0  0  0  0  0  0  0  0  0  0  0
    2.6302   13.6295   -5.4977 O   0  0  0  0  0  0  0  0  0  0  0  0
    0.9501   13.1612   -3.9053 C   0  0  0  0  0  0  0  0  0  0  0  0
    2.0179   15.4484   -4.1037 C   0  0  0  0  0  0  0  0  0  0  0  0
   -5.4969   11.6111  -10.3560 H   0  0  0  0  0  0  0  0  0  0  0  0
   -6.9986   12.5652  -10.1084 H   0  0  0  0  0  0  0  0  0  0  0  0
   -8.7448   10.7898  -13.3757 H   0  0  0  0  0  0  0  0  0  0  0  0
   -7.2513    9.8419  -13.6878 H   0  0  0  0  0  0  0  0  0  0  0  0
   -6.8965   12.2561  -14.0981 H   0  0  0  0  0  0  0  0  0  0  0  0
   -8.0357    9.5970   -7.2556 H   0  0  0  0  0  0  0  0  0  0  0  0
   -2.6221   14.5745  -10.8136 H   0  0  0  0  0  0  0  0  0  0  0  0
   -3.0817   14.9010  -12.5191 H   0  0  0  0  0  0  0  0  0  0  0  0
   -3.9787   15.6934  -11.1797 H   0  0  0  0  0  0  0  0  0  0  0  0
   -5.2393   15.2056  -12.9549 H   0  0  0  0  0  0  0  0  0  0  0  0
   -6.7407   12.3094   -6.9043 H   0  0  0  0  0  0  0  0  0  0  0  0
   -4.5143   13.2904   -6.4764 H   0  0  0  0  0  0  0  0  0  0  0  0
   -2.6607    9.7496   -8.0512 H   0  0  0  0  0  0  0  0  0  0  0  0
   -4.8939    8.7820   -8.4907 H   0  0  0  0  0  0  0  0  0  0  0  0
   -2.4321   14.1965   -6.1989 H   0  0  0  0  0  0  0  0  0  0  0  0
   -0.6606   10.5688   -7.5878 H   0  0  0  0  0  0  0  0  0  0  0  0
    0.9713   15.0036   -6.8329 H   0  0  0  0  0  0  0  0  0  0  0  0
   -0.2256   15.3572   -5.5409 H   0  0  0  0  0  0  0  0  0  0  0  0
    3.2752   13.4021   -4.8384 H   0  0  0  0  0  0  0  0  0  0  0  0
    1.7145   12.9160   -3.1533 H   0  0  0  0  0  0  0  0  0  0  0  0
    0.0563   13.5598   -3.4030 H   0  0  0  0  0  0  0  0  0  0  0  0
    0.6818   12.2530   -4.4649 H   0  0  0  0  0  0  0  0  0  0  0  0
    2.7591   15.1317   -3.3552 H   0  0  0  0  0  0  0  0  0  0  0  0
    2.4859   16.1517   -4.8082 H   0  0  0  0  0  0  0  0  0  0  0  0
    1.1747   15.9421   -3.5985 H   0  0  0  0  0  0  0  0  0  0  0  0
  1  2  1  0  0  0  0
  1  4  2  0  0  0  0
  1 13  1  0  0  0  0
  2  6  1  0  0  0  0
  3  4  1  0  0  0  0
  3  5  1  0  0  0  0
  5  6  2  0  0  0  0
  5  9  1  0  0  0  0
  6  7  1  0  0  0  0
  7  8  1  0  0  0  0
  7 10  2  3  0  0  0
  8  9  2  0  0  0  0
 10 15  1  0  0  0  0
 11 12  1  0  0  0  0
 11 13  2  0  0  0  0
 13 14  1  0  0  0  0
 15 16  2  0  0  0  0
 15 20  1  0  0  0  0
 16 17  1  0  0  0  0
 17 18  2  0  0  0  0
 18 19  1  0  0  0  0
 18 21  1  0  0  0  0
 19 20  2  0  0  0  0
 21 22  2  0  0  0  0
 21 25  1  0  0  0  0
 22 23  1  0  0  0  0
 23 24  1  0  0  0  0
 23 26  1  0  0  0  0
 24 25  2  0  0  0  0
 26 27  1  0  0  0  0
 27 28  1  0  0  0  0
 27 29  1  0  0  0  0
 27 30  1  0  0  0  0
  2 31  1  0  0  0  0
  2 32  1  0  0  0  0
  3 33  1  0  0  0  0
  3 34  1  0  0  0  0
  4 35  1  0  0  0  0
 10 36  1  0  0  0  0
 12 37  1  0  0  0  0
 12 38  1  0  0  0  0
 12 39  1  0  0  0  0
 14 40  1  0  0  0  0
 16 41  1  0  0  0  0
 17 42  1  0  0  0  0
 19 43  1  0  0  0  0
 20 44  1  0  0  0  0
 22 45  1  0  0  0  0
 25 46  1  0  0  0  0
 26 47  1  0  0  0  0
 26 48  1  0  0  0  0
 28 49  1  0  0  0  0
 29 50  1  0  0  0  0
 29 51  1  0  0  0  0
 29 52  1  0  0  0  0
 30 53  1  0  0  0  0
 30 54  1  0  0  0  0
 30 55  1  0  0  0  0
M  END
> <Name>
20

> <IC50[uM]>
0.016

$$$$
20
  -OEChem-05192314333D
 Structure written by MMmdl.
 55 58  0     1  0  0  0  0  0999 V2000
   -6.3740   12.3524  -12.0161 C   0  0  0  0  0  0  0  0  0  0  0  0
   -6.5100   11.8065  -10.7374 C   0  0  0  0  0  0  0  0  0  0  0  0
   -7.7222   10.5841  -13.0265 C   0  0  0  0  0  0  0  0  0  0  0  0
   -6.9887   11.7756  -13.1353 C   0  0  0  0  0  0  0  0  0  0  0  0
   -7.8163   10.0177  -11.7563 C   0  0  3  0  0  0  0  0  0  0  0  0
   -7.2425   10.6185  -10.6022 C   0  0  0  0  0  0  0  0  0  0  0  0
   -7.6172    9.7487   -9.5090 C   0  0  0  0  0  0  0  0  0  0  0  0
   -8.2846    8.7289   -9.9848 N   0  0  0  0  0  0  0  0  0  0  0  0
   -8.4176    8.8659  -11.2967 N   0  0  0  0  0  0  0  0  0  0  0  0
   -7.3368    9.8884   -8.0257 C   0  0  0  0  0  0  0  0  0  0  0  0
   -4.4023   13.6480  -11.4578 N   0  0  0  0  0  0  0  0  0  0  0  0
   -3.4623   14.7747  -11.4948 C   0  0  0  0  0  0  0  0  0  0  0  0
   -5.5331   13.6158  -12.1961 C   0  0  0  0  0  0  0  0  0  0  0  0
   -5.8776   14.5022  -12.9731 O   0  0  0  0  0  0  0  0  0  0  0  0
   -5.9585   10.4860   -7.7354 C   0  0  0  0  0  0  0  0  0  0  0  0
   -5.8494   11.7555   -7.1596 C   0  0  0  0  0  0  0  0  0  0  0  0
   -4.5968   12.3068   -6.9148 C   0  0  0  0  0  0  0  0  0  0  0  0
   -3.4468   11.5860   -7.2370 C   0  0  0  0  0  0  0  0  0  0  0  0
   -3.5513   10.3089   -7.8057 C   0  0  0  0  0  0  0  0  0  0  0  0
   -4.8090    9.7654   -8.0523 C   0  0  0  0  0  0  0  0  0  0  0  0
   -2.0901   12.1669   -6.9801 C   0  0  0  0  0  0  0  0  0  0  0  0
   -1.7479   13.4121   -6.4872 C   0  0  0  0  0  0  0  0  0  0  0  0
   -0.3990   13.4663   -6.4328 N   0  0  0  0  0  0  0  0  0  0  0  0
    0.1869   12.3691   -6.8386 N   0  0  0  0  0  0  0  0  0  0  0  0
   -0.8034   11.5628   -7.1902 C   0  0  0  0  0  0  0  0  0  0  0  0
    0.4389   14.5894   -5.9640 C   0  0  0  0  0  0  0  0  0  0  0  0
    1.5042   14.2139   -4.8744 C   0  0  0  0  0  0  0  0  0  0  0  0
    2.6302   13.6295   -5.4977 O   0  0  0  0  0  0  0  0  0  0  0  0
    0.9501   13.1612   -3.9053 C   0  0  0  0  0  0  0  0  0  0  0  0
    2.0179   15.4484   -4.1037 C   0  0  0  0  0  0  0  0  0  0  0  0
   -6.0641   12.2854   -9.8782 H   0  0  0  0  0  0  0  0  0  0  0  0
   -8.1913   10.1279  -13.8857 H   0  0  0  0  0  0  0  0  0  0  0  0
   -6.8965   12.2561  -14.0981 H   0  0  0  0  0  0  0  0  0  0  0  0
   -6.8834    9.4622  -11.9330 H   0  0  0  0  0  0  0  0  0  0  0  0
   -8.1032   10.5418   -7.5834 H   0  0  0  0  0  0  0  0  0  0  0  0
   -7.3924    8.8923   -7.5624 H   0  0  0  0  0  0  0  0  0  0  0  0
   -2.6221   14.5745  -10.8136 H   0  0  0  0  0  0  0  0  0  0  0  0
   -3.0817   14.9010  -12.5191 H   0  0  0  0  0  0  0  0  0  0  0  0
   -3.9787   15.6934  -11.1797 H   0  0  0  0  0  0  0  0  0  0  0  0
   -5.2393   15.2056  -12.9549 H   0  0  0  0  0  0  0  0  0  0  0  0
   -6.7407   12.3094   -6.9043 H   0  0  0  0  0  0  0  0  0  0  0  0
   -4.5143   13.2904   -6.4764 H   0  0  0  0  0  0  0  0  0  0  0  0
   -2.6607    9.7496   -8.0512 H   0  0  0  0  0  0  0  0  0  0  0  0
   -4.8939    8.7820   -8.4907 H   0  0  0  0  0  0  0  0  0  0  0  0
   -2.4321   14.1965   -6.1989 H   0  0  0  0  0  0  0  0  0  0  0  0
   -0.6606   10.5688   -7.5878 H   0  0  0  0  0  0  0  0  0  0  0  0
    0.9713   15.0036   -6.8329 H   0  0  0  0  0  0  0  0  0  0  0  0
   -0.2256   15.3572   -5.5409 H   0  0  0  0  0  0  0  0  0  0  0  0
    3.2752   13.4021   -4.8384 H   0  0  0  0  0  0  0  0  0  0  0  0
    1.7145   12.9160   -3.1533 H   0  0  0  0  0  0  0  0  0  0  0  0
    0.0563   13.5598   -3.4030 H   0  0  0  0  0  0  0  0  0  0  0  0
    0.6818   12.2530   -4.4649 H   0  0  0  0  0  0  0  0  0  0  0  0
    2.7591   15.1317   -3.3552 H   0  0  0  0  0  0  0  0  0  0  0  0
    2.4859   16.1517   -4.8082 H   0  0  0  0  0  0  0  0  0  0  0  0
    1.1747   15.9421   -3.5985 H   0  0  0  0  0  0  0  0  0  0  0  0
  1  2  2  0  0  0  0
  1  4  1  0  0  0  0
  1 13  1  0  0  0  0
  2  6  1  0  0  0  0
  3  4  2  0  0  0  0
  3  5  1  0  0  0  0
  5  6  1  0  0  0  0
  5  9  1  0  0  0  0
  6  7  2  0  0  0  0
  7  8  1  0  0  0  0
  7 10  1  0  0  0  0
  8  9  2  0  0  0  0
 10 15  1  0  0  0  0
 11 12  1  0  0  0  0
 11 13  2  0  0  0  0
 13 14  1  0  0  0  0
 15 16  2  0  0  0  0
 15 20  1  0  0  0  0
 16 17  1  0  0  0  0
 17 18  2  0  0  0  0
 18 19  1  0  0  0  0
 18 21  1  0  0  0  0
 19 20  2  0  0  0  0
 21 22  2  0  0  0  0
 21 25  1  0  0  0  0
 22 23  1  0  0  0  0
 23 24  1  0  0  0  0
 23 26  1  0  0  0  0
 24 25  2  0  0  0  0
 26 27  1  0  0  0  0
 27 28  1  0  0  0  0
 27 29  1  0  0  0  0
 27 30  1  0  0  0  0
  2 31  1  0  0  0  0
  3 32  1  0  0  0  0
  4 33  1  0  0  0  0
  5 34  1  0  0  0  0
 10 35  1  0  0  0  0
 10 36  1  0  0  0  0
 12 37  1  0  0  0  0
 12 38  1  0  0  0  0
 12 39  1  0  0  0  0
 14 40  1  0  0  0  0
 16 41  1  0  0  0  0
 17 42  1  0  0  0  0
 19 43  1  0  0  0  0
 20 44  1  0  0  0  0
 22 45  1  0  0  0  0
 25 46  1  0  0  0  0
 26 47  1  0  0  0  0
 26 48  1  0  0  0  0
 28 49  1  0  0  0  0
 29 50  1  0  0  0  0
 29 51  1  0  0  0  0
 29 52  1  0  0  0  0
 30 53  1  0  0  0  0
 30 54  1  0  0  0  0
 30 55  1  0  0  0  0
M  END
> <Name>
20

> <IC50[uM]>
0.016

$$$$
20
  -OEChem-05192314333D
 Structure written by MMmdl.
 55 58  0     0  0  0  0  0  0999 V2000
   -6.3740   12.3524  -12.0161 C   0  0  0  0  0  0  0  0  0  0  0  0
   -6.5100   11.8065  -10.7374 C   0  0  0  0  0  0  0  0  0  0  0  0
   -7.7222   10.5841  -13.0265 C   0  0  0  0  0  0  0  0  0  0  0  0
   -6.9887   11.7756  -13.1353 C   0  0  0  0  0  0  0  0  0  0  0  0
   -7.8163   10.0177  -11.7563 C   0  0  0  0  0  0  0  0  0  0  0  0
   -7.2425   10.6185  -10.6022 C   0  0  0  0  0  0  0  0  0  0  0  0
   -7.6172    9.7487   -9.5090 C   0  0  0  0  0  0  0  0  0  0  0  0
   -8.2846    8.7289   -9.9848 N   0  0  0  0  0  0  0  0  0  0  0  0
   -8.4176    8.8659  -11.2967 N   0  0  0  0  0  0  0  0  0  0  0  0
   -7.3368    9.8884   -8.0257 C   0  0  0  0  0  0  0  0  0  0  0  0
   -4.4023   13.6480  -11.4578 N   0  0  0  0  0  0  0  0  0  0  0  0
   -3.4623   14.7747  -11.4948 C   0  0  0  0  0  0  0  0  0  0  0  0
   -5.5331   13.6158  -12.1961 C   0  0  0  0  0  0  0  0  0  0  0  0
   -5.8776   14.5022  -12.9731 O   0  0  0  0  0  0  0  0  0  0  0  0
   -5.9585   10.4860   -7.7354 C   0  0  0  0  0  0  0  0  0  0  0  0
   -5.8494   11.7555   -7.1596 C   0  0  0  0  0  0  0  0  0  0  0  0
   -4.5968   12.3068   -6.9148 C   0  0  0  0  0  0  0  0  0  0  0  0
   -3.4468   11.5860   -7.2370 C   0  0  0  0  0  0  0  0  0  0  0  0
   -3.5513   10.3089   -7.8057 C   0  0  0  0  0  0  0  0  0  0  0  0
   -4.8090    9.7654   -8.0523 C   0  0  0  0  0  0  0  0  0  0  0  0
   -2.0901   12.1669   -6.9801 C   0  0  0  0  0  0  0  0  0  0  0  0
   -1.7479   13.4121   -6.4872 C   0  0  0  0  0  0  0  0  0  0  0  0
   -0.3990   13.4663   -6.4328 N   0  0  0  0  0  0  0  0  0  0  0  0
    0.1869   12.3691   -6.8386 N   0  0  0  0  0  0  0  0  0  0  0  0
   -0.8034   11.5628   -7.1902 C   0  0  0  0  0  0  0  0  0  0  0  0
    0.4389   14.5894   -5.9640 C   0  0  0  0  0  0  0  0  0  0  0  0
    1.5042   14.2139   -4.8744 C   0  0  0  0  0  0  0  0  0  0  0  0
    2.6302   13.6295   -5.4977 O   0  0  0  0  0  0  0  0  0  0  0  0
    0.9501   13.1612   -3.9053 C   0  0  0  0  0  0  0  0  0  0  0  0
    2.0179   15.4484   -4.1037 C   0  0  0  0  0  0  0  0  0  0  0  0
   -6.0641   12.2854   -9.8782 H   0  0  0  0  0  0  0  0  0  0  0  0
   -8.1913   10.1279  -13.8857 H   0  0  0  0  0  0  0  0  0  0  0  0
   -7.6795   12.5319  -13.5364 H   0  0  0  0  0  0  0  0  0  0  0  0
   -6.1895   11.5845  -13.8665 H   0  0  0  0  0  0  0  0  0  0  0  0
   -8.1032   10.5418   -7.5834 H   0  0  0  0  0  0  0  0  0  0  0  0
   -7.3924    8.8923   -7.5624 H   0  0  0  0  0  0  0  0  0  0  0  0
   -2.6221   14.5745  -10.8136 H   0  0  0  0  0  0  0  0  0  0  0  0
   -3.0817   14.9010  -12.5191 H   0  0  0  0  0  0  0  0  0  0  0  0
   -3.9787   15.6934  -11.1797 H   0  0  0  0  0  0  0  0  0  0  0  0
   -5.2393   15.2056  -12.9549 H   0  0  0  0  0  0  0  0  0  0  0  0
   -6.7407   12.3094   -6.9043 H   0  0  0  0  0  0  0  0  0  0  0  0
   -4.5143   13.2904   -6.4764 H   0  0  0  0  0  0  0  0  0  0  0  0
   -2.6607    9.7496   -8.0512 H   0  0  0  0  0  0  0  0  0  0  0  0
   -4.8939    8.7820   -8.4907 H   0  0  0  0  0  0  0  0  0  0  0  0
   -2.4321   14.1965   -6.1989 H   0  0  0  0  0  0  0  0  0  0  0  0
   -0.6606   10.5688   -7.5878 H   0  0  0  0  0  0  0  0  0  0  0  0
    0.9713   15.0036   -6.8329 H   0  0  0  0  0  0  0  0  0  0  0  0
   -0.2256   15.3572   -5.5409 H   0  0  0  0  0  0  0  0  0  0  0  0
    3.2752   13.4021   -4.8384 H   0  0  0  0  0  0  0  0  0  0  0  0
    1.7145   12.9160   -3.1533 H   0  0  0  0  0  0  0  0  0  0  0  0
    0.0563   13.5598   -3.4030 H   0  0  0  0  0  0  0  0  0  0  0  0
    0.6818   12.2530   -4.4649 H   0  0  0  0  0  0  0  0  0  0  0  0
    2.7591   15.1317   -3.3552 H   0  0  0  0  0  0  0  0  0  0  0  0
    2.4859   16.1517   -4.8082 H   0  0  0  0  0  0  0  0  0  0  0  0
    1.1747   15.9421   -3.5985 H   0  0  0  0  0  0  0  0  0  0  0  0
  1  2  2  0  0  0  0
  1  4  1  0  0  0  0
  1 13  1  0  0  0  0
  2  6  1  0  0  0  0
  3  4  1  0  0  0  0
  3  5  2  0  0  0  0
  5  6  1  0  0  0  0
  5  9  1  0  0  0  0
  6  7  2  0  0  0  0
  7  8  1  0  0  0  0
  7 10  1  0  0  0  0
  8  9  2  0  0  0  0
 10 15  1  0  0  0  0
 11 12  1  0  0  0  0
 11 13  2  0  0  0  0
 13 14  1  0  0  0  0
 15 16  2  0  0  0  0
 15 20  1  0  0  0  0
 16 17  1  0  0  0  0
 17 18  2  0  0  0  0
 18 19  1  0  0  0  0
 18 21  1  0  0  0  0
 19 20  2  0  0  0  0
 21 22  2  0  0  0  0
 21 25  1  0  0  0  0
 22 23  1  0  0  0  0
 23 24  1  0  0  0  0
 23 26  1  0  0  0  0
 24 25  2  0  0  0  0
 26 27  1  0  0  0  0
 27 28  1  0  0  0  0
 27 29  1  0  0  0  0
 27 30  1  0  0  0  0
  2 31  1  0  0  0  0
  3 32  1  0  0  0  0
  4 33  1  0  0  0  0
  4 34  1  0  0  0  0
 10 35  1  0  0  0  0
 10 36  1  0  0  0  0
 12 37  1  0  0  0  0
 12 38  1  0  0  0  0
 12 39  1  0  0  0  0
 14 40  1  0  0  0  0
 16 41  1  0  0  0  0
 17 42  1  0  0  0  0
 19 43  1  0  0  0  0
 20 44  1  0  0  0  0
 22 45  1  0  0  0  0
 25 46  1  0  0  0  0
 26 47  1  0  0  0  0
 26 48  1  0  0  0  0
 28 49  1  0  0  0  0
 29 50  1  0  0  0  0
 29 51  1  0  0  0  0
 29 52  1  0  0  0  0
 30 53  1  0  0  0  0
 30 54  1  0  0  0  0
 30 55  1  0  0  0  0
M  END
> <Name>
20

> <IC50[uM]>
0.016

$$$$
20
  -OEChem-05192314333D
 Structure written by MMmdl.
 55 58  0     0  0  0  0  0  0999 V2000
   -6.3740   12.3524  -12.0161 C   0  0  0  0  0  0  0  0  0  0  0  0
   -6.5100   11.8065  -10.7374 C   0  0  0  0  0  0  0  0  0  0  0  0
   -7.7222   10.5841  -13.0265 C   0  0  0  0  0  0  0  0  0  0  0  0
   -6.9887   11.7756  -13.1353 C   0  0  0  0  0  0  0  0  0  0  0  0
   -7.8163   10.0177  -11.7563 C   0  0  0  0  0  0  0  0  0  0  0  0
   -7.2425   10.6185  -10.6022 C   0  0  0  0  0  0  0  0  0  0  0  0
   -7.6172    9.7487   -9.5090 C   0  0  0  0  0  0  0  0  0  0  0  0
   -8.2846    8.7289   -9.9848 N   0  0  0  0  0  0  0  0  0  0  0  0
   -8.4176    8.8659  -11.2967 N   0  0  0  0  0  0  0  0  0  0  0  0
   -7.3368    9.8884   -8.0257 C   0  0  0  0  0  0  0  0  0  0  0  0
   -4.4023   13.6480  -11.4578 N   0  0  0  0  0  0  0  0  0  0  0  0
   -3.4623   14.7747  -11.4948 C   0  0  0  0  0  0  0  0  0  0  0  0
   -5.5331   13.6158  -12.1961 C   0  0  0  0  0  0  0  0  0  0  0  0
   -5.8776   14.5022  -12.9731 O   0  0  0  0  0  0  0  0  0  0  0  0
   -5.9585   10.4860   -7.7354 C   0  0  0  0  0  0  0  0  0  0  0  0
   -5.8494   11.7555   -7.1596 C   0  0  0  0  0  0  0  0  0  0  0  0
   -4.5968   12.3068   -6.9148 C   0  0  0  0  0  0  0  0  0  0  0  0
   -3.4468   11.5860   -7.2370 C   0  0  0  0  0  0  0  0  0  0  0  0
   -3.5513   10.3089   -7.8057 C   0  0  0  0  0  0  0  0  0  0  0  0
   -4.8090    9.7654   -8.0523 C   0  0  0  0  0  0  0  0  0  0  0  0
   -2.0901   12.1669   -6.9801 C   0  0  0  0  0  0  0  0  0  0  0  0
   -1.7479   13.4121   -6.4872 C   0  0  0  0  0  0  0  0  0  0  0  0
   -0.3990   13.4663   -6.4328 N   0  0  0  0  0  0  0  0  0  0  0  0
    0.1869   12.3691   -6.8386 N   0  0  0  0  0  0  0  0  0  0  0  0
   -0.8034   11.5628   -7.1902 C   0  0  0  0  0  0  0  0  0  0  0  0
    0.4389   14.5894   -5.9640 C   0  0  0  0  0  0  0  0  0  0  0  0
    1.5042   14.2139   -4.8744 C   0  0  0  0  0  0  0  0  0  0  0  0
    2.6302   13.6295   -5.4977 O   0  0  0  0  0  0  0  0  0  0  0  0
    0.9501   13.1612   -3.9053 C   0  0  0  0  0  0  0  0  0  0  0  0
    2.0179   15.4484   -4.1037 C   0  0  0  0  0  0  0  0  0  0  0  0
   -5.4969   11.6111  -10.3560 H   0  0  0  0  0  0  0  0  0  0  0  0
   -6.9986   12.5652  -10.1084 H   0  0  0  0  0  0  0  0  0  0  0  0
   -8.1913   10.1279  -13.8857 H   0  0  0  0  0  0  0  0  0  0  0  0
   -6.8965   12.2561  -14.0981 H   0  0  0  0  0  0  0  0  0  0  0  0
   -8.1032   10.5418   -7.5834 H   0  0  0  0  0  0  0  0  0  0  0  0
   -7.3924    8.8923   -7.5624 H   0  0  0  0  0  0  0  0  0  0  0  0
   -2.6221   14.5745  -10.8136 H   0  0  0  0  0  0  0  0  0  0  0  0
   -3.0817   14.9010  -12.5191 H   0  0  0  0  0  0  0  0  0  0  0  0
   -3.9787   15.6934  -11.1797 H   0  0  0  0  0  0  0  0  0  0  0  0
   -5.2393   15.2056  -12.9549 H   0  0  0  0  0  0  0  0  0  0  0  0
   -6.7407   12.3094   -6.9043 H   0  0  0  0  0  0  0  0  0  0  0  0
   -4.5143   13.2904   -6.4764 H   0  0  0  0  0  0  0  0  0  0  0  0
   -2.6607    9.7496   -8.0512 H   0  0  0  0  0  0  0  0  0  0  0  0
   -4.8939    8.7820   -8.4907 H   0  0  0  0  0  0  0  0  0  0  0  0
   -2.4321   14.1965   -6.1989 H   0  0  0  0  0  0  0  0  0  0  0  0
   -0.6606   10.5688   -7.5878 H   0  0  0  0  0  0  0  0  0  0  0  0
    0.9713   15.0036   -6.8329 H   0  0  0  0  0  0  0  0  0  0  0  0
   -0.2256   15.3572   -5.5409 H   0  0  0  0  0  0  0  0  0  0  0  0
    3.2752   13.4021   -4.8384 H   0  0  0  0  0  0  0  0  0  0  0  0
    1.7145   12.9160   -3.1533 H   0  0  0  0  0  0  0  0  0  0  0  0
    0.0563   13.5598   -3.4030 H   0  0  0  0  0  0  0  0  0  0  0  0
    0.6818   12.2530   -4.4649 H   0  0  0  0  0  0  0  0  0  0  0  0
    2.7591   15.1317   -3.3552 H   0  0  0  0  0  0  0  0  0  0  0  0
    2.4859   16.1517   -4.8082 H   0  0  0  0  0  0  0  0  0  0  0  0
    1.1747   15.9421   -3.5985 H   0  0  0  0  0  0  0  0  0  0  0  0
  1  2  1  0  0  0  0
  1  4  2  0  0  0  0
  1 13  1  0  0  0  0
  2  6  1  0  0  0  0
  3  4  1  0  0  0  0
  3  5  2  0  0  0  0
  5  6  1  0  0  0  0
  5  9  1  0  0  0  0
  6  7  2  0  0  0  0
  7  8  1  0  0  0  0
  7 10  1  0  0  0  0
  8  9  2  0  0  0  0
 10 15  1  0  0  0  0
 11 12  1  0  0  0  0
 11 13  2  0  0  0  0
 13 14  1  0  0  0  0
 15 16  2  0  0  0  0
 15 20  1  0  0  0  0
 16 17  1  0  0  0  0
 17 18  2  0  0  0  0
 18 19  1  0  0  0  0
 18 21  1  0  0  0  0
 19 20  2  0  0  0  0
 21 22  2  0  0  0  0
 21 25  1  0  0  0  0
 22 23  1  0  0  0  0
 23 24  1  0  0  0  0
 23 26  1  0  0  0  0
 24 25  2  0  0  0  0
 26 27  1  0  0  0  0
 27 28  1  0  0  0  0
 27 29  1  0  0  0  0
 27 30  1  0  0  0  0
  2 31  1  0  0  0  0
  2 32  1  0  0  0  0
  3 33  1  0  0  0  0
  4 34  1  0  0  0  0
 10 35  1  0  0  0  0
 10 36  1  0  0  0  0
 12 37  1  0  0  0  0
 12 38  1  0  0  0  0
 12 39  1  0  0  0  0
 14 40  1  0  0  0  0
 16 41  1  0  0  0  0
 17 42  1  0  0  0  0
 19 43  1  0  0  0  0
 20 44  1  0  0  0  0
 22 45  1  0  0  0  0
 25 46  1  0  0  0  0
 26 47  1  0  0  0  0
 26 48  1  0  0  0  0
 28 49  1  0  0  0  0
 29 50  1  0  0  0  0
 29 51  1  0  0  0  0
 29 52  1  0  0  0  0
 30 53  1  0  0  0  0
 30 54  1  0  0  0  0
 30 55  1  0  0  0  0
M  END
> <Name>
20

> <IC50[uM]>
0.016

$$$$
20
  -OEChem-05192314333D
 Structure written by MMmdl.
 55 58  0     1  0  0  0  0  0999 V2000
   -6.3740   12.3524  -12.0161 C   0  0  0  0  0  0  0  0  0  0  0  0
   -6.5100   11.8065  -10.7374 C   0  0  0  0  0  0  0  0  0  0  0  0
   -7.7222   10.5841  -13.0265 C   0  0  0  0  0  0  0  0  0  0  0  0
   -6.9887   11.7756  -13.1353 C   0  0  0  0  0  0  0  0  0  0  0  0
   -7.8163   10.0177  -11.7563 C   0  0  0  0  0  0  0  0  0  0  0  0
   -7.2425   10.6185  -10.6022 C   0  0  3  0  0  0  0  0  0  0  0  0
   -7.6172    9.7487   -9.5090 C   0  0  0  0  0  0  0  0  0  0  0  0
   -8.2846    8.7289   -9.9848 N   0  0  0  0  0  0  0  0  0  0  0  0
   -8.4176    8.8659  -11.2967 N   0  0  0  0  0  0  0  0  0  0  0  0
   -7.3368    9.8884   -8.0257 C   0  0  0  0  0  0  0  0  0  0  0  0
   -4.4023   13.6480  -11.4578 N   0  0  0  0  0  0  0  0  0  0  0  0
   -3.4623   14.7747  -11.4948 C   0  0  0  0  0  0  0  0  0  0  0  0
   -5.5331   13.6158  -12.1961 C   0  0  0  0  0  0  0  0  0  0  0  0
   -5.8776   14.5022  -12.9731 O   0  0  0  0  0  0  0  0  0  0  0  0
   -5.9585   10.4860   -7.7354 C   0  0  0  0  0  0  0  0  0  0  0  0
   -5.8494   11.7555   -7.1596 C   0  0  0  0  0  0  0  0  0  0  0  0
   -4.5968   12.3068   -6.9148 C   0  0  0  0  0  0  0  0  0  0  0  0
   -3.4468   11.5860   -7.2370 C   0  0  0  0  0  0  0  0  0  0  0  0
   -3.5513   10.3089   -7.8057 C   0  0  0  0  0  0  0  0  0  0  0  0
   -4.8090    9.7654   -8.0523 C   0  0  0  0  0  0  0  0  0  0  0  0
   -2.0901   12.1669   -6.9801 C   0  0  0  0  0  0  0  0  0  0  0  0
   -1.7479   13.4121   -6.4872 C   0  0  0  0  0  0  0  0  0  0  0  0
   -0.3990   13.4663   -6.4328 N   0  0  0  0  0  0  0  0  0  0  0  0
    0.1869   12.3691   -6.8386 N   0  0  0  0  0  0  0  0  0  0  0  0
   -0.8034   11.5628   -7.1902 C   0  0  0  0  0  0  0  0  0  0  0  0
    0.4389   14.5894   -5.9640 C   0  0  0  0  0  0  0  0  0  0  0  0
    1.5042   14.2139   -4.8744 C   0  0  0  0  0  0  0  0  0  0  0  0
    2.6302   13.6295   -5.4977 O   0  0  0  0  0  0  0  0  0  0  0  0
    0.9501   13.1612   -3.9053 C   0  0  0  0  0  0  0  0  0  0  0  0
    2.0179   15.4484   -4.1037 C   0  0  0  0  0  0  0  0  0  0  0  0
   -6.0641   12.2854   -9.8782 H   0  0  0  0  0  0  0  0  0  0  0  0
   -8.1913   10.1279  -13.8857 H   0  0  0  0  0  0  0  0  0  0  0  0
   -6.8965   12.2561  -14.0981 H   0  0  0  0  0  0  0  0  0  0  0  0
   -6.3233   10.0335  -10.7537 H   0  0  0  0  0  0  0  0  0  0  0  0
   -8.6387    7.9660   -9.4439 H   0  0  0  0  0  0  0  0  0  0  0  0
   -8.0357    9.5970   -7.2556 H   0  0  0  0  0  0  0  0  0  0  0  0
   -2.6221   14.5745  -10.8136 H   0  0  0  0  0  0  0  0  0  0  0  0
   -3.0817   14.9010  -12.5191 H   0  0  0  0  0  0  0  0  0  0  0  0
   -3.9787   15.6934  -11.1797 H   0  0  0  0  0  0  0  0  0  0  0  0
   -5.2393   15.2056  -12.9549 H   0  0  0  0  0  0  0  0  0  0  0  0
   -6.7407   12.3094   -6.9043 H   0  0  0  0  0  0  0  0  0  0  0  0
   -4.5143   13.2904   -6.4764 H   0  0  0  0  0  0  0  0  0  0  0  0
   -2.6607    9.7496   -8.0512 H   0  0  0  0  0  0  0  0  0  0  0  0
   -4.8939    8.7820   -8.4907 H   0  0  0  0  0  0  0  0  0  0  0  0
   -2.4321   14.1965   -6.1989 H   0  0  0  0  0  0  0  0  0  0  0  0
   -0.6606   10.5688   -7.5878 H   0  0  0  0  0  0  0  0  0  0  0  0
    0.9713   15.0036   -6.8329 H   0  0  0  0  0  0  0  0  0  0  0  0
   -0.2256   15.3572   -5.5409 H   0  0  0  0  0  0  0  0  0  0  0  0
    3.2752   13.4021   -4.8384 H   0  0  0  0  0  0  0  0  0  0  0  0
    1.7145   12.9160   -3.1533 H   0  0  0  0  0  0  0  0  0  0  0  0
    0.0563   13.5598   -3.4030 H   0  0  0  0  0  0  0  0  0  0  0  0
    0.6818   12.2530   -4.4649 H   0  0  0  0  0  0  0  0  0  0  0  0
    2.7591   15.1317   -3.3552 H   0  0  0  0  0  0  0  0  0  0  0  0
    2.4859   16.1517   -4.8082 H   0  0  0  0  0  0  0  0  0  0  0  0
    1.1747   15.9421   -3.5985 H   0  0  0  0  0  0  0  0  0  0  0  0
  1  2  2  0  0  0  0
  1  4  1  0  0  0  0
  1 13  1  0  0  0  0
  2  6  1  0  0  0  0
  3  4  2  0  0  0  0
  3  5  1  0  0  0  0
  5  6  1  0  0  0  0
  5  9  2  0  0  0  0
  6  7  1  0  0  0  0
  7  8  1  0  0  0  0
  7 10  2  3  0  0  0
  8  9  1  0  0  0  0
 10 15  1  0  0  0  0
 11 12  1  0  0  0  0
 11 13  2  0  0  0  0
 13 14  1  0  0  0  0
 15 16  2  0  0  0  0
 15 20  1  0  0  0  0
 16 17  1  0  0  0  0
 17 18  2  0  0  0  0
 18 19  1  0  0  0  0
 18 21  1  0  0  0  0
 19 20  2  0  0  0  0
 21 22  2  0  0  0  0
 21 25  1  0  0  0  0
 22 23  1  0  0  0  0
 23 24  1  0  0  0  0
 23 26  1  0  0  0  0
 24 25  2  0  0  0  0
 26 27  1  0  0  0  0
 27 28  1  0  0  0  0
 27 29  1  0  0  0  0
 27 30  1  0  0  0  0
  2 31  1  0  0  0  0
  3 32  1  0  0  0  0
  4 33  1  0  0  0  0
  6 34  1  0  0  0  0
  8 35  1  0  0  0  0
 10 36  1  0  0  0  0
 12 37  1  0  0  0  0
 12 38  1  0  0  0  0
 12 39  1  0  0  0  0
 14 40  1  0  0  0  0
 16 41  1  0  0  0  0
 17 42  1  0  0  0  0
 19 43  1  0  0  0  0
 20 44  1  0  0  0  0
 22 45  1  0  0  0  0
 25 46  1  0  0  0  0
 26 47  1  0  0  0  0
 26 48  1  0  0  0  0
 28 49  1  0  0  0  0
 29 50  1  0  0  0  0
 29 51  1  0  0  0  0
 29 52  1  0  0  0  0
 30 53  1  0  0  0  0
 30 54  1  0  0  0  0
 30 55  1  0  0  0  0
M  END
> <Name>
20

> <IC50[uM]>
0.016

$$$$
20
  -OEChem-05192314333D
 Structure written by MMmdl.
 55 58  0     1  0  0  0  0  0999 V2000
   -6.3740   12.3524  -12.0161 C   0  0  0  0  0  0  0  0  0  0  0  0
   -6.5100   11.8065  -10.7374 C   0  0  0  0  0  0  0  0  0  0  0  0
   -7.7222   10.5841  -13.0265 C   0  0  0  0  0  0  0  0  0  0  0  0
   -6.9887   11.7756  -13.1353 C   0  0  0  0  0  0  0  0  0  0  0  0
   -7.8163   10.0177  -11.7563 C   0  0  0  0  0  0  0  0  0  0  0  0
   -7.2425   10.6185  -10.6022 C   0  0  0  0  0  0  0  0  0  0  0  0
   -7.6172    9.7487   -9.5090 C   0  0  0  0  0  0  0  0  0  0  0  0
   -8.2846    8.7289   -9.9848 N   0  0  0  0  0  0  0  0  0  0  0  0
   -8.4176    8.8659  -11.2967 N   0  0  0  0  0  0  0  0  0  0  0  0
   -7.3368    9.8884   -8.0257 C   0  0  0  0  0  0  0  0  0  0  0  0
   -4.4023   13.6480  -11.4578 N   0  0  0  0  0  0  0  0  0  0  0  0
   -3.4623   14.7747  -11.4948 C   0  0  0  0  0  0  0  0  0  0  0  0
   -5.5331   13.6158  -12.1961 C   0  0  0  0  0  0  0  0  0  0  0  0
   -5.8776   14.5022  -12.9731 O   0  0  0  0  0  0  0  0  0  0  0  0
   -5.9585   10.4860   -7.7354 C   0  0  0  0  0  0  0  0  0  0  0  0
   -5.8494   11.7555   -7.1596 C   0  0  0  0  0  0  0  0  0  0  0  0
   -4.5968   12.3068   -6.9148 C   0  0  0  0  0  0  0  0  0  0  0  0
   -3.4468   11.5860   -7.2370 C   0  0  0  0  0  0  0  0  0  0  0  0
   -3.5513   10.3089   -7.8057 C   0  0  0  0  0  0  0  0  0  0  0  0
   -4.8090    9.7654   -8.0523 C   0  0  0  0  0  0  0  0  0  0  0  0
   -2.0901   12.1669   -6.9801 C   0  0  0  0  0  0  0  0  0  0  0  0
   -1.7479   13.4121   -6.4872 C   0  0  0  0  0  0  0  0  0  0  0  0
   -0.3990   13.4663   -6.4328 N   0  0  3  0  0  0  0  0  0  0  0  0
    0.1869   12.3691   -6.8386 N   0  0  0  0  0  0  0  0  0  0  0  0
   -0.8034   11.5628   -7.1902 C   0  0  0  0  0  0  0  0  0  0  0  0
    0.4389   14.5894   -5.9640 C   0  0  0  0  0  0  0  0  0  0  0  0
    1.5042   14.2139   -4.8744 C   0  0  0  0  0  0  0  0  0  0  0  0
    2.6302   13.6295   -5.4977 O   0  0  0  0  0  0  0  0  0  0  0  0
    0.9501   13.1612   -3.9053 C   0  0  0  0  0  0  0  0  0  0  0  0
    2.0179   15.4484   -4.1037 C   0  0  0  0  0  0  0  0  0  0  0  0
   -6.0641   12.2854   -9.8782 H   0  0  0  0  0  0  0  0  0  0  0  0
   -8.1913   10.1279  -13.8857 H   0  0  0  0  0  0  0  0  0  0  0  0
   -6.8965   12.2561  -14.0981 H   0  0  0  0  0  0  0  0  0  0  0  0
   -8.0357    9.5970   -7.2556 H   0  0  0  0  0  0  0  0  0  0  0  0
   -4.1971   12.8720  -10.8613 H   0  0  0  0  0  0  0  0  0  0  0  0
   -2.6221   14.5745  -10.8136 H   0  0  0  0  0  0  0  0  0  0  0  0
   -3.0817   14.9010  -12.5191 H   0  0  0  0  0  0  0  0  0  0  0  0
   -3.9787   15.6934  -11.1797 H   0  0  0  0  0  0  0  0  0  0  0  0
   -5.9701   10.0308   -6.7341 H   0  0  0  0  0  0  0  0  0  0  0  0
   -6.7407   12.3094   -6.9043 H   0  0  0  0  0  0  0  0  0  0  0  0
   -4.5143   13.2904   -6.4764 H   0  0  0  0  0  0  0  0  0  0  0  0
   -2.6607    9.7496   -8.0512 H   0  0  0  0  0  0  0  0  0  0  0  0
   -4.8939    8.7820   -8.4907 H   0  0  0  0  0  0  0  0  0  0  0  0
   -2.1296   14.1989   -7.1545 H   0  0  0  0  0  0  0  0  0  0  0  0
   -2.1709   13.5478   -5.4809 H   0  0  0  0  0  0  0  0  0  0  0  0
   -0.6606   10.5688   -7.5878 H   0  0  0  0  0  0  0  0  0  0  0  0
    0.9713   15.0036   -6.8329 H   0  0  0  0  0  0  0  0  0  0  0  0
   -0.2256   15.3572   -5.5409 H   0  0  0  0  0  0  0  0  0  0  0  0
    3.2752   13.4021   -4.8384 H   0  0  0  0  0  0  0  0  0  0  0  0
    1.7145   12.9160   -3.1533 H   0  0  0  0  0  0  0  0  0  0  0  0
    0.0563   13.5598   -3.4030 H   0  0  0  0  0  0  0  0  0  0  0  0
    0.6818   12.2530   -4.4649 H   0  0  0  0  0  0  0  0  0  0  0  0
    2.7591   15.1317   -3.3552 H   0  0  0  0  0  0  0  0  0  0  0  0
    2.4859   16.1517   -4.8082 H   0  0  0  0  0  0  0  0  0  0  0  0
    1.1747   15.9421   -3.5985 H   0  0  0  0  0  0  0  0  0  0  0  0
  1  2  2  0  0  0  0
  1  4  1  0  0  0  0
  1 13  1  0  0  0  0
  2  6  1  0  0  0  0
  3  4  2  0  0  0  0
  3  5  1  0  0  0  0
  5  6  2  0  0  0  0
  5  9  1  0  0  0  0
  6  7  1  0  0  0  0
  7  8  1  0  0  0  0
  7 10  2  3  0  0  0
  8  9  2  0  0  0  0
 10 15  1  0  0  0  0
 11 12  1  0  0  0  0
 11 13  1  0  0  0  0
 13 14  2  0  0  0  0
 15 16  1  0  0  0  0
 15 20  1  0  0  0  0
 16 17  2  0  0  0  0
 17 18  1  0  0  0  0
 18 19  1  0  0  0  0
 18 21  2  0  0  0  0
 19 20  2  0  0  0  0
 21 22  1  0  0  0  0
 21 25  1  0  0  0  0
 22 23  1  0  0  0  0
 23 24  1  0  0  0  0
 23 26  1  0  0  0  0
 24 25  2  0  0  0  0
 26 27  1  0  0  0  0
 27 28  1  0  0  0  0
 27 29  1  0  0  0  0
 27 30  1  0  0  0  0
  2 31  1  0  0  0  0
  3 32  1  0  0  0  0
  4 33  1  0  0  0  0
 10 34  1  0  0  0  0
 11 35  1  0  0  0  0
 12 36  1  0  0  0  0
 12 37  1  0  0  0  0
 12 38  1  0  0  0  0
 15 39  1  0  0  0  0
 16 40  1  0  0  0  0
 17 41  1  0  0  0  0
 19 42  1  0  0  0  0
 20 43  1  0  0  0  0
 22 44  1  0  0  0  0
 22 45  1  0  0  0  0
 25 46  1  0  0  0  0
 26 47  1  0  0  0  0
 26 48  1  0  0  0  0
 28 49  1  0  0  0  0
 29 50  1  0  0  0  0
 29 51  1  0  0  0  0
 29 52  1  0  0  0  0
 30 53  1  0  0  0  0
 30 54  1  0  0  0  0
 30 55  1  0  0  0  0
M  END
> <Name>
20

> <IC50[uM]>
0.016

$$$$
20
  -OEChem-05192314333D
 Structure written by MMmdl.
 55 58  0     1  0  0  0  0  0999 V2000
   -6.3740   12.3524  -12.0161 C   0  0  0  0  0  0  0  0  0  0  0  0
   -6.5100   11.8065  -10.7374 C   0  0  0  0  0  0  0  0  0  0  0  0
   -7.7222   10.5841  -13.0265 C   0  0  0  0  0  0  0  0  0  0  0  0
   -6.9887   11.7756  -13.1353 C   0  0  0  0  0  0  0  0  0  0  0  0
   -7.8163   10.0177  -11.7563 C   0  0  0  0  0  0  0  0  0  0  0  0
   -7.2425   10.6185  -10.6022 C   0  0  0  0  0  0  0  0  0  0  0  0
   -7.6172    9.7487   -9.5090 C   0  0  0  0  0  0  0  0  0  0  0  0
   -8.2846    8.7289   -9.9848 N   0  0  0  0  0  0  0  0  0  0  0  0
   -8.4176    8.8659  -11.2967 N   0  0  0  0  0  0  0  0  0  0  0  0
   -7.3368    9.8884   -8.0257 C   0  0  0  0  0  0  0  0  0  0  0  0
   -4.4023   13.6480  -11.4578 N   0  0  0  0  0  0  0  0  0  0  0  0
   -3.4623   14.7747  -11.4948 C   0  0  0  0  0  0  0  0  0  0  0  0
   -5.5331   13.6158  -12.1961 C   0  0  0  0  0  0  0  0  0  0  0  0
   -5.8776   14.5022  -12.9731 O   0  0  0  0  0  0  0  0  0  0  0  0
   -5.9585   10.4860   -7.7354 C   0  0  0  0  0  0  0  0  0  0  0  0
   -5.8494   11.7555   -7.1596 C   0  0  0  0  0  0  0  0  0  0  0  0
   -4.5968   12.3068   -6.9148 C   0  0  0  0  0  0  0  0  0  0  0  0
   -3.4468   11.5860   -7.2370 C   0  0  0  0  0  0  0  0  0  0  0  0
   -3.5513   10.3089   -7.8057 C   0  0  0  0  0  0  0  0  0  0  0  0
   -4.8090    9.7654   -8.0523 C   0  0  0  0  0  0  0  0  0  0  0  0
   -2.0901   12.1669   -6.9801 C   0  0  0  0  0  0  0  0  0  0  0  0
   -1.7479   13.4121   -6.4872 C   0  0  0  0  0  0  0  0  0  0  0  0
   -0.3990   13.4663   -6.4328 N   0  0  3  0  0  0  0  0  0  0  0  0
    0.1869   12.3691   -6.8386 N   0  0  0  0  0  0  0  0  0  0  0  0
   -0.8034   11.5628   -7.1902 C   0  0  0  0  0  0  0  0  0  0  0  0
    0.4389   14.5894   -5.9640 C   0  0  0  0  0  0  0  0  0  0  0  0
    1.5042   14.2139   -4.8744 C   0  0  0  0  0  0  0  0  0  0  0  0
    2.6302   13.6295   -5.4977 O   0  0  0  0  0  0  0  0  0  0  0  0
    0.9501   13.1612   -3.9053 C   0  0  0  0  0  0  0  0  0  0  0  0
    2.0179   15.4484   -4.1037 C   0  0  0  0  0  0  0  0  0  0  0  0
   -6.0641   12.2854   -9.8782 H   0  0  0  0  0  0  0  0  0  0  0  0
   -8.1913   10.1279  -13.8857 H   0  0  0  0  0  0  0  0  0  0  0  0
   -6.8965   12.2561  -14.0981 H   0  0  0  0  0  0  0  0  0  0  0  0
   -8.0357    9.5970   -7.2556 H   0  0  0  0  0  0  0  0  0  0  0  0
   -4.1971   12.8720  -10.8613 H   0  0  0  0  0  0  0  0  0  0  0  0
   -2.6221   14.5745  -10.8136 H   0  0  0  0  0  0  0  0  0  0  0  0
   -3.0817   14.9010  -12.5191 H   0  0  0  0  0  0  0  0  0  0  0  0
   -3.9787   15.6934  -11.1797 H   0  0  0  0  0  0  0  0  0  0  0  0
   -6.7407   12.3094   -6.9043 H   0  0  0  0  0  0  0  0  0  0  0  0
   -4.5489   13.2509   -7.4773 H   0  0  0  0  0  0  0  0  0  0  0  0
   -4.5477   12.5195   -5.8367 H   0  0  0  0  0  0  0  0  0  0  0  0
   -2.6607    9.7496   -8.0512 H   0  0  0  0  0  0  0  0  0  0  0  0
   -4.8939    8.7820   -8.4907 H   0  0  0  0  0  0  0  0  0  0  0  0
   -2.1296   14.1989   -7.1545 H   0  0  0  0  0  0  0  0  0  0  0  0
   -2.1709   13.5478   -5.4809 H   0  0  0  0  0  0  0  0  0  0  0  0
   -0.6606   10.5688   -7.5878 H   0  0  0  0  0  0  0  0  0  0  0  0
    0.9713   15.0036   -6.8329 H   0  0  0  0  0  0  0  0  0  0  0  0
   -0.2256   15.3572   -5.5409 H   0  0  0  0  0  0  0  0  0  0  0  0
    3.2752   13.4021   -4.8384 H   0  0  0  0  0  0  0  0  0  0  0  0
    1.7145   12.9160   -3.1533 H   0  0  0  0  0  0  0  0  0  0  0  0
    0.0563   13.5598   -3.4030 H   0  0  0  0  0  0  0  0  0  0  0  0
    0.6818   12.2530   -4.4649 H   0  0  0  0  0  0  0  0  0  0  0  0
    2.7591   15.1317   -3.3552 H   0  0  0  0  0  0  0  0  0  0  0  0
    2.4859   16.1517   -4.8082 H   0  0  0  0  0  0  0  0  0  0  0  0
    1.1747   15.9421   -3.5985 H   0  0  0  0  0  0  0  0  0  0  0  0
  1  2  2  0  0  0  0
  1  4  1  0  0  0  0
  1 13  1  0  0  0  0
  2  6  1  0  0  0  0
  3  4  2  0  0  0  0
  3  5  1  0  0  0  0
  5  6  2  0  0  0  0
  5  9  1  0  0  0  0
  6  7  1  0  0  0  0
  7  8  1  0  0  0  0
  7 10  2  3  0  0  0
  8  9  2  0  0  0  0
 10 15  1  0  0  0  0
 11 12  1  0  0  0  0
 11 13  1  0  0  0  0
 13 14  2  0  0  0  0
 15 16  2  0  0  0  0
 15 20  1  0  0  0  0
 16 17  1  0  0  0  0
 17 18  1  0  0  0  0
 18 19  1  0  0  0  0
 18 21  2  0  0  0  0
 19 20  2  0  0  0  0
 21 22  1  0  0  0  0
 21 25  1  0  0  0  0
 22 23  1  0  0  0  0
 23 24  1  0  0  0  0
 23 26  1  0  0  0  0
 24 25  2  0  0  0  0
 26 27  1  0  0  0  0
 27 28  1  0  0  0  0
 27 29  1  0  0  0  0
 27 30  1  0  0  0  0
  2 31  1  0  0  0  0
  3 32  1  0  0  0  0
  4 33  1  0  0  0  0
 10 34  1  0  0  0  0
 11 35  1  0  0  0  0
 12 36  1  0  0  0  0
 12 37  1  0  0  0  0
 12 38  1  0  0  0  0
 16 39  1  0  0  0  0
 17 40  1  0  0  0  0
 17 41  1  0  0  0  0
 19 42  1  0  0  0  0
 20 43  1  0  0  0  0
 22 44  1  0  0  0  0
 22 45  1  0  0  0  0
 25 46  1  0  0  0  0
 26 47  1  0  0  0  0
 26 48  1  0  0  0  0
 28 49  1  0  0  0  0
 29 50  1  0  0  0  0
 29 51  1  0  0  0  0
 29 52  1  0  0  0  0
 30 53  1  0  0  0  0
 30 54  1  0  0  0  0
 30 55  1  0  0  0  0
M  END
> <Name>
20

> <IC50[uM]>
0.016

$$$$
20
  -OEChem-05192314333D
 Structure written by MMmdl.
 55 58  0     1  0  0  0  0  0999 V2000
   -6.3740   12.3524  -12.0161 C   0  0  0  0  0  0  0  0  0  0  0  0
   -6.5100   11.8065  -10.7374 C   0  0  0  0  0  0  0  0  0  0  0  0
   -7.7222   10.5841  -13.0265 C   0  0  0  0  0  0  0  0  0  0  0  0
   -6.9887   11.7756  -13.1353 C   0  0  0  0  0  0  0  0  0  0  0  0
   -7.8163   10.0177  -11.7563 C   0  0  0  0  0  0  0  0  0  0  0  0
   -7.2425   10.6185  -10.6022 C   0  0  0  0  0  0  0  0  0  0  0  0
   -7.6172    9.7487   -9.5090 C   0  0  0  0  0  0  0  0  0  0  0  0
   -8.2846    8.7289   -9.9848 N   0  0  0  0  0  0  0  0  0  0  0  0
   -8.4176    8.8659  -11.2967 N   0  0  0  0  0  0  0  0  0  0  0  0
   -7.3368    9.8884   -8.0257 C   0  0  0  0  0  0  0  0  0  0  0  0
   -4.4023   13.6480  -11.4578 N   0  0  0  0  0  0  0  0  0  0  0  0
   -3.4623   14.7747  -11.4948 C   0  0  0  0  0  0  0  0  0  0  0  0
   -5.5331   13.6158  -12.1961 C   0  0  0  0  0  0  0  0  0  0  0  0
   -5.8776   14.5022  -12.9731 O   0  0  0  0  0  0  0  0  0  0  0  0
   -5.9585   10.4860   -7.7354 C   0  0  0  0  0  0  0  0  0  0  0  0
   -5.8494   11.7555   -7.1596 C   0  0  0  0  0  0  0  0  0  0  0  0
   -4.5968   12.3068   -6.9148 C   0  0  0  0  0  0  0  0  0  0  0  0
   -3.4468   11.5860   -7.2370 C   0  0  0  0  0  0  0  0  0  0  0  0
   -3.5513   10.3089   -7.8057 C   0  0  0  0  0  0  0  0  0  0  0  0
   -4.8090    9.7654   -8.0523 C   0  0  0  0  0  0  0  0  0  0  0  0
   -2.0901   12.1669   -6.9801 C   0  0  0  0  0  0  0  0  0  0  0  0
   -1.7479   13.4121   -6.4872 C   0  0  0  0  0  0  0  0  0  0  0  0
   -0.3990   13.4663   -6.4328 N   0  0  3  0  0  0  0  0  0  0  0  0
    0.1869   12.3691   -6.8386 N   0  0  0  0  0  0  0  0  0  0  0  0
   -0.8034   11.5628   -7.1902 C   0  0  0  0  0  0  0  0  0  0  0  0
    0.4389   14.5894   -5.9640 C   0  0  0  0  0  0  0  0  0  0  0  0
    1.5042   14.2139   -4.8744 C   0  0  0  0  0  0  0  0  0  0  0  0
    2.6302   13.6295   -5.4977 O   0  0  0  0  0  0  0  0  0  0  0  0
    0.9501   13.1612   -3.9053 C   0  0  0  0  0  0  0  0  0  0  0  0
    2.0179   15.4484   -4.1037 C   0  0  0  0  0  0  0  0  0  0  0  0
   -6.0641   12.2854   -9.8782 H   0  0  0  0  0  0  0  0  0  0  0  0
   -8.1913   10.1279  -13.8857 H   0  0  0  0  0  0  0  0  0  0  0  0
   -6.8965   12.2561  -14.0981 H   0  0  0  0  0  0  0  0  0  0  0  0
   -8.0357    9.5970   -7.2556 H   0  0  0  0  0  0  0  0  0  0  0  0
   -2.6221   14.5745  -10.8136 H   0  0  0  0  0  0  0  0  0  0  0  0
   -3.0817   14.9010  -12.5191 H   0  0  0  0  0  0  0  0  0  0  0  0
   -3.9787   15.6934  -11.1797 H   0  0  0  0  0  0  0  0  0  0  0  0
   -5.2393   15.2056  -12.9549 H   0  0  0  0  0  0  0  0  0  0  0  0
   -5.9701   10.0308   -6.7341 H   0  0  0  0  0  0  0  0  0  0  0  0
   -6.7407   12.3094   -6.9043 H   0  0  0  0  0  0  0  0  0  0  0  0
   -4.5143   13.2904   -6.4764 H   0  0  0  0  0  0  0  0  0  0  0  0
   -2.6607    9.7496   -8.0512 H   0  0  0  0  0  0  0  0  0  0  0  0
   -4.8939    8.7820   -8.4907 H   0  0  0  0  0  0  0  0  0  0  0  0
   -2.1296   14.1989   -7.1545 H   0  0  0  0  0  0  0  0  0  0  0  0
   -2.1709   13.5478   -5.4809 H   0  0  0  0  0  0  0  0  0  0  0  0
   -0.6606   10.5688   -7.5878 H   0  0  0  0  0  0  0  0  0  0  0  0
    0.9713   15.0036   -6.8329 H   0  0  0  0  0  0  0  0  0  0  0  0
   -0.2256   15.3572   -5.5409 H   0  0  0  0  0  0  0  0  0  0  0  0
    3.2752   13.4021   -4.8384 H   0  0  0  0  0  0  0  0  0  0  0  0
    1.7145   12.9160   -3.1533 H   0  0  0  0  0  0  0  0  0  0  0  0
    0.0563   13.5598   -3.4030 H   0  0  0  0  0  0  0  0  0  0  0  0
    0.6818   12.2530   -4.4649 H   0  0  0  0  0  0  0  0  0  0  0  0
    2.7591   15.1317   -3.3552 H   0  0  0  0  0  0  0  0  0  0  0  0
    2.4859   16.1517   -4.8082 H   0  0  0  0  0  0  0  0  0  0  0  0
    1.1747   15.9421   -3.5985 H   0  0  0  0  0  0  0  0  0  0  0  0
  1  2  2  0  0  0  0
  1  4  1  0  0  0  0
  1 13  1  0  0  0  0
  2  6  1  0  0  0  0
  3  4  2  0  0  0  0
  3  5  1  0  0  0  0
  5  6  2  0  0  0  0
  5  9  1  0  0  0  0
  6  7  1  0  0  0  0
  7  8  1  0  0  0  0
  7 10  2  3  0  0  0
  8  9  2  0  0  0  0
 10 15  1  0  0  0  0
 11 12  1  0  0  0  0
 11 13  2  0  0  0  0
 13 14  1  0  0  0  0
 15 16  1  0  0  0  0
 15 20  1  0  0  0  0
 16 17  2  0  0  0  0
 17 18  1  0  0  0  0
 18 19  1  0  0  0  0
 18 21  2  0  0  0  0
 19 20  2  0  0  0  0
 21 22  1  0  0  0  0
 21 25  1  0  0  0  0
 22 23  1  0  0  0  0
 23 24  1  0  0  0  0
 23 26  1  0  0  0  0
 24 25  2  0  0  0  0
 26 27  1  0  0  0  0
 27 28  1  0  0  0  0
 27 29  1  0  0  0  0
 27 30  1  0  0  0  0
  2 31  1  0  0  0  0
  3 32  1  0  0  0  0
  4 33  1  0  0  0  0
 10 34  1  0  0  0  0
 12 35  1  0  0  0  0
 12 36  1  0  0  0  0
 12 37  1  0  0  0  0
 14 38  1  0  0  0  0
 15 39  1  0  0  0  0
 16 40  1  0  0  0  0
 17 41  1  0  0  0  0
 19 42  1  0  0  0  0
 20 43  1  0  0  0  0
 22 44  1  0  0  0  0
 22 45  1  0  0  0  0
 25 46  1  0  0  0  0
 26 47  1  0  0  0  0
 26 48  1  0  0  0  0
 28 49  1  0  0  0  0
 29 50  1  0  0  0  0
 29 51  1  0  0  0  0
 29 52  1  0  0  0  0
 30 53  1  0  0  0  0
 30 54  1  0  0  0  0
 30 55  1  0  0  0  0
M  END
> <Name>
20

> <IC50[uM]>
0.016

$$$$
20
  -OEChem-05192314333D
 Structure written by MMmdl.
 55 58  0     1  0  0  0  0  0999 V2000
   -6.3740   12.3524  -12.0161 C   0  0  0  0  0  0  0  0  0  0  0  0
   -6.5100   11.8065  -10.7374 C   0  0  0  0  0  0  0  0  0  0  0  0
   -7.7222   10.5841  -13.0265 C   0  0  0  0  0  0  0  0  0  0  0  0
   -6.9887   11.7756  -13.1353 C   0  0  0  0  0  0  0  0  0  0  0  0
   -7.8163   10.0177  -11.7563 C   0  0  0  0  0  0  0  0  0  0  0  0
   -7.2425   10.6185  -10.6022 C   0  0  0  0  0  0  0  0  0  0  0  0
   -7.6172    9.7487   -9.5090 C   0  0  0  0  0  0  0  0  0  0  0  0
   -8.2846    8.7289   -9.9848 N   0  0  0  0  0  0  0  0  0  0  0  0
   -8.4176    8.8659  -11.2967 N   0  0  0  0  0  0  0  0  0  0  0  0
   -7.3368    9.8884   -8.0257 C   0  0  0  0  0  0  0  0  0  0  0  0
   -4.4023   13.6480  -11.4578 N   0  0  0  0  0  0  0  0  0  0  0  0
   -3.4623   14.7747  -11.4948 C   0  0  0  0  0  0  0  0  0  0  0  0
   -5.5331   13.6158  -12.1961 C   0  0  0  0  0  0  0  0  0  0  0  0
   -5.8776   14.5022  -12.9731 O   0  0  0  0  0  0  0  0  0  0  0  0
   -5.9585   10.4860   -7.7354 C   0  0  0  0  0  0  0  0  0  0  0  0
   -5.8494   11.7555   -7.1596 C   0  0  0  0  0  0  0  0  0  0  0  0
   -4.5968   12.3068   -6.9148 C   0  0  0  0  0  0  0  0  0  0  0  0
   -3.4468   11.5860   -7.2370 C   0  0  0  0  0  0  0  0  0  0  0  0
   -3.5513   10.3089   -7.8057 C   0  0  0  0  0  0  0  0  0  0  0  0
   -4.8090    9.7654   -8.0523 C   0  0  0  0  0  0  0  0  0  0  0  0
   -2.0901   12.1669   -6.9801 C   0  0  0  0  0  0  0  0  0  0  0  0
   -1.7479   13.4121   -6.4872 C   0  0  0  0  0  0  0  0  0  0  0  0
   -0.3990   13.4663   -6.4328 N   0  0  3  0  0  0  0  0  0  0  0  0
    0.1869   12.3691   -6.8386 N   0  0  0  0  0  0  0  0  0  0  0  0
   -0.8034   11.5628   -7.1902 C   0  0  0  0  0  0  0  0  0  0  0  0
    0.4389   14.5894   -5.9640 C   0  0  0  0  0  0  0  0  0  0  0  0
    1.5042   14.2139   -4.8744 C   0  0  0  0  0  0  0  0  0  0  0  0
    2.6302   13.6295   -5.4977 O   0  0  0  0  0  0  0  0  0  0  0  0
    0.9501   13.1612   -3.9053 C   0  0  0  0  0  0  0  0  0  0  0  0
    2.0179   15.4484   -4.1037 C   0  0  0  0  0  0  0  0  0  0  0  0
   -6.0641   12.2854   -9.8782 H   0  0  0  0  0  0  0  0  0  0  0  0
   -8.1913   10.1279  -13.8857 H   0  0  0  0  0  0  0  0  0  0  0  0
   -6.8965   12.2561  -14.0981 H   0  0  0  0  0  0  0  0  0  0  0  0
   -8.0357    9.5970   -7.2556 H   0  0  0  0  0  0  0  0  0  0  0  0
   -2.6221   14.5745  -10.8136 H   0  0  0  0  0  0  0  0  0  0  0  0
   -3.0817   14.9010  -12.5191 H   0  0  0  0  0  0  0  0  0  0  0  0
   -3.9787   15.6934  -11.1797 H   0  0  0  0  0  0  0  0  0  0  0  0
   -5.2393   15.2056  -12.9549 H   0  0  0  0  0  0  0  0  0  0  0  0
   -6.7407   12.3094   -6.9043 H   0  0  0  0  0  0  0  0  0  0  0  0
   -4.5489   13.2509   -7.4773 H   0  0  0  0  0  0  0  0  0  0  0  0
   -4.5477   12.5195   -5.8367 H   0  0  0  0  0  0  0  0  0  0  0  0
   -2.6607    9.7496   -8.0512 H   0  0  0  0  0  0  0  0  0  0  0  0
   -4.8939    8.7820   -8.4907 H   0  0  0  0  0  0  0  0  0  0  0  0
   -2.1296   14.1989   -7.1545 H   0  0  0  0  0  0  0  0  0  0  0  0
   -2.1709   13.5478   -5.4809 H   0  0  0  0  0  0  0  0  0  0  0  0
   -0.6606   10.5688   -7.5878 H   0  0  0  0  0  0  0  0  0  0  0  0
    0.9713   15.0036   -6.8329 H   0  0  0  0  0  0  0  0  0  0  0  0
   -0.2256   15.3572   -5.5409 H   0  0  0  0  0  0  0  0  0  0  0  0
    3.2752   13.4021   -4.8384 H   0  0  0  0  0  0  0  0  0  0  0  0
    1.7145   12.9160   -3.1533 H   0  0  0  0  0  0  0  0  0  0  0  0
    0.0563   13.5598   -3.4030 H   0  0  0  0  0  0  0  0  0  0  0  0
    0.6818   12.2530   -4.4649 H   0  0  0  0  0  0  0  0  0  0  0  0
    2.7591   15.1317   -3.3552 H   0  0  0  0  0  0  0  0  0  0  0  0
    2.4859   16.1517   -4.8082 H   0  0  0  0  0  0  0  0  0  0  0  0
    1.1747   15.9421   -3.5985 H   0  0  0  0  0  0  0  0  0  0  0  0
  1  2  2  0  0  0  0
  1  4  1  0  0  0  0
  1 13  1  0  0  0  0
  2  6  1  0  0  0  0
  3  4  2  0  0  0  0
  3  5  1  0  0  0  0
  5  6  2  0  0  0  0
  5  9  1  0  0  0  0
  6  7  1  0  0  0  0
  7  8  1  0  0  0  0
  7 10  2  3  0  0  0
  8  9  2  0  0  0  0
 10 15  1  0  0  0  0
 11 12  1  0  0  0  0
 11 13  2  0  0  0  0
 13 14  1  0  0  0  0
 15 16  2  0  0  0  0
 15 20  1  0  0  0  0
 16 17  1  0  0  0  0
 17 18  1  0  0  0  0
 18 19  1  0  0  0  0
 18 21  2  0  0  0  0
 19 20  2  0  0  0  0
 21 22  1  0  0  0  0
 21 25  1  0  0  0  0
 22 23  1  0  0  0  0
 23 24  1  0  0  0  0
 23 26  1  0  0  0  0
 24 25  2  0  0  0  0
 26 27  1  0  0  0  0
 27 28  1  0  0  0  0
 27 29  1  0  0  0  0
 27 30  1  0  0  0  0
  2 31  1  0  0  0  0
  3 32  1  0  0  0  0
  4 33  1  0  0  0  0
 10 34  1  0  0  0  0
 12 35  1  0  0  0  0
 12 36  1  0  0  0  0
 12 37  1  0  0  0  0
 14 38  1  0  0  0  0
 16 39  1  0  0  0  0
 17 40  1  0  0  0  0
 17 41  1  0  0  0  0
 19 42  1  0  0  0  0
 20 43  1  0  0  0  0
 22 44  1  0  0  0  0
 22 45  1  0  0  0  0
 25 46  1  0  0  0  0
 26 47  1  0  0  0  0
 26 48  1  0  0  0  0
 28 49  1  0  0  0  0
 29 50  1  0  0  0  0
 29 51  1  0  0  0  0
 29 52  1  0  0  0  0
 30 53  1  0  0  0  0
 30 54  1  0  0  0  0
 30 55  1  0  0  0  0
M  END
> <Name>
20

> <IC50[uM]>
0.016

$$$$
20
  -OEChem-05192314333D
 Structure written by MMmdl.
 55 58  0     1  0  0  0  0  0999 V2000
   -6.3740   12.3524  -12.0161 C   0  0  3  0  0  0  0  0  0  0  0  0
   -6.5100   11.8065  -10.7374 C   0  0  0  0  0  0  0  0  0  0  0  0
   -7.7222   10.5841  -13.0265 C   0  0  0  0  0  0  0  0  0  0  0  0
   -6.9887   11.7756  -13.1353 C   0  0  0  0  0  0  0  0  0  0  0  0
   -7.8163   10.0177  -11.7563 C   0  0  0  0  0  0  0  0  0  0  0  0
   -7.2425   10.6185  -10.6022 C   0  0  0  0  0  0  0  0  0  0  0  0
   -7.6172    9.7487   -9.5090 C   0  0  0  0  0  0  0  0  0  0  0  0
   -8.2846    8.7289   -9.9848 N   0  0  0  0  0  0  0  0  0  0  0  0
   -8.4176    8.8659  -11.2967 N   0  0  0  0  0  0  0  0  0  0  0  0
   -7.3368    9.8884   -8.0257 C   0  0  0  0  0  0  0  0  0  0  0  0
   -4.4023   13.6480  -11.4578 N   0  0  0  0  0  0  0  0  0  0  0  0
   -3.4623   14.7747  -11.4948 C   0  0  0  0  0  0  0  0  0  0  0  0
   -5.5331   13.6158  -12.1961 C   0  0  0  0  0  0  0  0  0  0  0  0
   -5.8776   14.5022  -12.9731 O   0  0  0  0  0  0  0  0  0  0  0  0
   -5.9585   10.4860   -7.7354 C   0  0  0  0  0  0  0  0  0  0  0  0
   -5.8494   11.7555   -7.1596 C   0  0  0  0  0  0  0  0  0  0  0  0
   -4.5968   12.3068   -6.9148 C   0  0  0  0  0  0  0  0  0  0  0  0
   -3.4468   11.5860   -7.2370 C   0  0  0  0  0  0  0  0  0  0  0  0
   -3.5513   10.3089   -7.8057 C   0  0  0  0  0  0  0  0  0  0  0  0
   -4.8090    9.7654   -8.0523 C   0  0  0  0  0  0  0  0  0  0  0  0
   -2.0901   12.1669   -6.9801 C   0  0  0  0  0  0  0  0  0  0  0  0
   -1.7479   13.4121   -6.4872 C   0  0  0  0  0  0  0  0  0  0  0  0
   -0.3990   13.4663   -6.4328 N   0  0  3  0  0  0  0  0  0  0  0  0
    0.1869   12.3691   -6.8386 N   0  0  0  0  0  0  0  0  0  0  0  0
   -0.8034   11.5628   -7.1902 C   0  0  0  0  0  0  0  0  0  0  0  0
    0.4389   14.5894   -5.9640 C   0  0  0  0  0  0  0  0  0  0  0  0
    1.5042   14.2139   -4.8744 C   0  0  0  0  0  0  0  0  0  0  0  0
    2.6302   13.6295   -5.4977 O   0  0  0  0  0  0  0  0  0  0  0  0
    0.9501   13.1612   -3.9053 C   0  0  0  0  0  0  0  0  0  0  0  0
    2.0179   15.4484   -4.1037 C   0  0  0  0  0  0  0  0  0  0  0  0
   -5.4811   11.7330  -12.1864 H   0  0  0  0  0  0  0  0  0  0  0  0
   -6.0641   12.2854   -9.8782 H   0  0  0  0  0  0  0  0  0  0  0  0
   -8.1913   10.1279  -13.8857 H   0  0  0  0  0  0  0  0  0  0  0  0
   -6.8965   12.2561  -14.0981 H   0  0  0  0  0  0  0  0  0  0  0  0
   -8.0357    9.5970   -7.2556 H   0  0  0  0  0  0  0  0  0  0  0  0
   -4.1971   12.8720  -10.8613 H   0  0  0  0  0  0  0  0  0  0  0  0
   -2.6221   14.5745  -10.8136 H   0  0  0  0  0  0  0  0  0  0  0  0
   -3.0817   14.9010  -12.5191 H   0  0  0  0  0  0  0  0  0  0  0  0
   -3.9787   15.6934  -11.1797 H   0  0  0  0  0  0  0  0  0  0  0  0
   -6.7407   12.3094   -6.9043 H   0  0  0  0  0  0  0  0  0  0  0  0
   -4.5143   13.2904   -6.4764 H   0  0  0  0  0  0  0  0  0  0  0  0
   -2.6607    9.7496   -8.0512 H   0  0  0  0  0  0  0  0  0  0  0  0
   -4.8939    8.7820   -8.4907 H   0  0  0  0  0  0  0  0  0  0  0  0
   -2.1296   14.1989   -7.1545 H   0  0  0  0  0  0  0  0  0  0  0  0
   -2.1709   13.5478   -5.4809 H   0  0  0  0  0  0  0  0  0  0  0  0
   -0.6606   10.5688   -7.5878 H   0  0  0  0  0  0  0  0  0  0  0  0
    0.9713   15.0036   -6.8329 H   0  0  0  0  0  0  0  0  0  0  0  0
   -0.2256   15.3572   -5.5409 H   0  0  0  0  0  0  0  0  0  0  0  0
    3.2752   13.4021   -4.8384 H   0  0  0  0  0  0  0  0  0  0  0  0
    1.7145   12.9160   -3.1533 H   0  0  0  0  0  0  0  0  0  0  0  0
    0.0563   13.5598   -3.4030 H   0  0  0  0  0  0  0  0  0  0  0  0
    0.6818   12.2530   -4.4649 H   0  0  0  0  0  0  0  0  0  0  0  0
    2.7591   15.1317   -3.3552 H   0  0  0  0  0  0  0  0  0  0  0  0
    2.4859   16.1517   -4.8082 H   0  0  0  0  0  0  0  0  0  0  0  0
    1.1747   15.9421   -3.5985 H   0  0  0  0  0  0  0  0  0  0  0  0
  1  2  1  0  0  0  0
  1  4  1  0  0  0  0
  1 13  1  0  0  0  0
  2  6  2  0  0  0  0
  3  4  2  0  0  0  0
  3  5  1  0  0  0  0
  5  6  1  0  0  0  0
  5  9  2  0  0  0  0
  6  7  1  0  0  0  0
  7  8  2  0  0  0  0
  7 10  1  0  0  0  0
  8  9  1  0  0  0  0
 10 15  2  0  0  0  0
 11 12  1  0  0  0  0
 11 13  1  0  0  0  0
 13 14  2  0  0  0  0
 15 16  1  0  0  0  0
 15 20  1  0  0  0  0
 16 17  2  0  0  0  0
 17 18  1  0  0  0  0
 18 19  1  0  0  0  0
 18 21  2  0  0  0  0
 19 20  2  0  0  0  0
 21 22  1  0  0  0  0
 21 25  1  0  0  0  0
 22 23  1  0  0  0  0
 23 24  1  0  0  0  0
 23 26  1  0  0  0  0
 24 25  2  0  0  0  0
 26 27  1  0  0  0  0
 27 28  1  0  0  0  0
 27 29  1  0  0  0  0
 27 30  1  0  0  0  0
  1 31  1  0  0  0  0
  2 32  1  0  0  0  0
  3 33  1  0  0  0  0
  4 34  1  0  0  0  0
 10 35  1  0  0  0  0
 11 36  1  0  0  0  0
 12 37  1  0  0  0  0
 12 38  1  0  0  0  0
 12 39  1  0  0  0  0
 16 40  1  0  0  0  0
 17 41  1  0  0  0  0
 19 42  1  0  0  0  0
 20 43  1  0  0  0  0
 22 44  1  0  0  0  0
 22 45  1  0  0  0  0
 25 46  1  0  0  0  0
 26 47  1  0  0  0  0
 26 48  1  0  0  0  0
 28 49  1  0  0  0  0
 29 50  1  0  0  0  0
 29 51  1  0  0  0  0
 29 52  1  0  0  0  0
 30 53  1  0  0  0  0
 30 54  1  0  0  0  0
 30 55  1  0  0  0  0
M  END
> <Name>
20

> <IC50[uM]>
0.016

$$$$
20
  -OEChem-05192314333D
 Structure written by MMmdl.
 55 58  0     1  0  0  0  0  0999 V2000
   -6.3740   12.3524  -12.0161 C   0  0  0  0  0  0  0  0  0  0  0  0
   -6.5100   11.8065  -10.7374 C   0  0  0  0  0  0  0  0  0  0  0  0
   -7.7222   10.5841  -13.0265 C   0  0  0  0  0  0  0  0  0  0  0  0
   -6.9887   11.7756  -13.1353 C   0  0  0  0  0  0  0  0  0  0  0  0
   -7.8163   10.0177  -11.7563 C   0  0  0  0  0  0  0  0  0  0  0  0
   -7.2425   10.6185  -10.6022 C   0  0  3  0  0  0  0  0  0  0  0  0
   -7.6172    9.7487   -9.5090 C   0  0  0  0  0  0  0  0  0  0  0  0
   -8.2846    8.7289   -9.9848 N   0  0  0  0  0  0  0  0  0  0  0  0
   -8.4176    8.8659  -11.2967 N   0  0  0  0  0  0  0  0  0  0  0  0
   -7.3368    9.8884   -8.0257 C   0  0  0  0  0  0  0  0  0  0  0  0
   -4.4023   13.6480  -11.4578 N   0  0  0  0  0  0  0  0  0  0  0  0
   -3.4623   14.7747  -11.4948 C   0  0  0  0  0  0  0  0  0  0  0  0
   -5.5331   13.6158  -12.1961 C   0  0  0  0  0  0  0  0  0  0  0  0
   -5.8776   14.5022  -12.9731 O   0  0  0  0  0  0  0  0  0  0  0  0
   -5.9585   10.4860   -7.7354 C   0  0  0  0  0  0  0  0  0  0  0  0
   -5.8494   11.7555   -7.1596 C   0  0  0  0  0  0  0  0  0  0  0  0
   -4.5968   12.3068   -6.9148 C   0  0  0  0  0  0  0  0  0  0  0  0
   -3.4468   11.5860   -7.2370 C   0  0  0  0  0  0  0  0  0  0  0  0
   -3.5513   10.3089   -7.8057 C   0  0  0  0  0  0  0  0  0  0  0  0
   -4.8090    9.7654   -8.0523 C   0  0  0  0  0  0  0  0  0  0  0  0
   -2.0901   12.1669   -6.9801 C   0  0  0  0  0  0  0  0  0  0  0  0
   -1.7479   13.4121   -6.4872 C   0  0  0  0  0  0  0  0  0  0  0  0
   -0.3990   13.4663   -6.4328 N   0  0  3  0  0  0  0  0  0  0  0  0
    0.1869   12.3691   -6.8386 N   0  0  0  0  0  0  0  0  0  0  0  0
   -0.8034   11.5628   -7.1902 C   0  0  0  0  0  0  0  0  0  0  0  0
    0.4389   14.5894   -5.9640 C   0  0  0  0  0  0  0  0  0  0  0  0
    1.5042   14.2139   -4.8744 C   0  0  0  0  0  0  0  0  0  0  0  0
    2.6302   13.6295   -5.4977 O   0  0  0  0  0  0  0  0  0  0  0  0
    0.9501   13.1612   -3.9053 C   0  0  0  0  0  0  0  0  0  0  0  0
    2.0179   15.4484   -4.1037 C   0  0  0  0  0  0  0  0  0  0  0  0
   -6.0641   12.2854   -9.8782 H   0  0  0  0  0  0  0  0  0  0  0  0
   -8.1913   10.1279  -13.8857 H   0  0  0  0  0  0  0  0  0  0  0  0
   -6.8965   12.2561  -14.0981 H   0  0  0  0  0  0  0  0  0  0  0  0
   -6.3233   10.0335  -10.7537 H   0  0  0  0  0  0  0  0  0  0  0  0
   -8.0357    9.5970   -7.2556 H   0  0  0  0  0  0  0  0  0  0  0  0
   -4.1971   12.8720  -10.8613 H   0  0  0  0  0  0  0  0  0  0  0  0
   -2.6221   14.5745  -10.8136 H   0  0  0  0  0  0  0  0  0  0  0  0
   -3.0817   14.9010  -12.5191 H   0  0  0  0  0  0  0  0  0  0  0  0
   -3.9787   15.6934  -11.1797 H   0  0  0  0  0  0  0  0  0  0  0  0
   -6.7407   12.3094   -6.9043 H   0  0  0  0  0  0  0  0  0  0  0  0
   -4.5143   13.2904   -6.4764 H   0  0  0  0  0  0  0  0  0  0  0  0
   -2.6607    9.7496   -8.0512 H   0  0  0  0  0  0  0  0  0  0  0  0
   -4.8939    8.7820   -8.4907 H   0  0  0  0  0  0  0  0  0  0  0  0
   -2.1296   14.1989   -7.1545 H   0  0  0  0  0  0  0  0  0  0  0  0
   -2.1709   13.5478   -5.4809 H   0  0  0  0  0  0  0  0  0  0  0  0
   -0.6606   10.5688   -7.5878 H   0  0  0  0  0  0  0  0  0  0  0  0
    0.9713   15.0036   -6.8329 H   0  0  0  0  0  0  0  0  0  0  0  0
   -0.2256   15.3572   -5.5409 H   0  0  0  0  0  0  0  0  0  0  0  0
    3.2752   13.4021   -4.8384 H   0  0  0  0  0  0  0  0  0  0  0  0
    1.7145   12.9160   -3.1533 H   0  0  0  0  0  0  0  0  0  0  0  0
    0.0563   13.5598   -3.4030 H   0  0  0  0  0  0  0  0  0  0  0  0
    0.6818   12.2530   -4.4649 H   0  0  0  0  0  0  0  0  0  0  0  0
    2.7591   15.1317   -3.3552 H   0  0  0  0  0  0  0  0  0  0  0  0
    2.4859   16.1517   -4.8082 H   0  0  0  0  0  0  0  0  0  0  0  0
    1.1747   15.9421   -3.5985 H   0  0  0  0  0  0  0  0  0  0  0  0
  1  2  2  0  0  0  0
  1  4  1  0  0  0  0
  1 13  1  0  0  0  0
  2  6  1  0  0  0  0
  3  4  2  0  0  0  0
  3  5  1  0  0  0  0
  5  6  1  0  0  0  0
  5  9  2  0  0  0  0
  6  7  1  0  0  0  0
  7  8  2  0  0  0  0
  7 10  1  0  0  0  0
  8  9  1  0  0  0  0
 10 15  2  0  0  0  0
 11 12  1  0  0  0  0
 11 13  1  0  0  0  0
 13 14  2  0  0  0  0
 15 16  1  0  0  0  0
 15 20  1  0  0  0  0
 16 17  2  0  0  0  0
 17 18  1  0  0  0  0
 18 19  1  0  0  0  0
 18 21  2  0  0  0  0
 19 20  2  0  0  0  0
 21 22  1  0  0  0  0
 21 25  1  0  0  0  0
 22 23  1  0  0  0  0
 23 24  1  0  0  0  0
 23 26  1  0  0  0  0
 24 25  2  0  0  0  0
 26 27  1  0  0  0  0
 27 28  1  0  0  0  0
 27 29  1  0  0  0  0
 27 30  1  0  0  0  0
  2 31  1  0  0  0  0
  3 32  1  0  0  0  0
  4 33  1  0  0  0  0
  6 34  1  0  0  0  0
 10 35  1  0  0  0  0
 11 36  1  0  0  0  0
 12 37  1  0  0  0  0
 12 38  1  0  0  0  0
 12 39  1  0  0  0  0
 16 40  1  0  0  0  0
 17 41  1  0  0  0  0
 19 42  1  0  0  0  0
 20 43  1  0  0  0  0
 22 44  1  0  0  0  0
 22 45  1  0  0  0  0
 25 46  1  0  0  0  0
 26 47  1  0  0  0  0
 26 48  1  0  0  0  0
 28 49  1  0  0  0  0
 29 50  1  0  0  0  0
 29 51  1  0  0  0  0
 29 52  1  0  0  0  0
 30 53  1  0  0  0  0
 30 54  1  0  0  0  0
 30 55  1  0  0  0  0
M  END
> <Name>
20

> <IC50[uM]>
0.016

$$$$
20
  -OEChem-05192314333D
 Structure written by MMmdl.
 55 58  0     1  0  0  0  0  0999 V2000
   -6.3740   12.3524  -12.0161 C   0  0  0  0  0  0  0  0  0  0  0  0
   -6.5100   11.8065  -10.7374 C   0  0  0  0  0  0  0  0  0  0  0  0
   -7.7222   10.5841  -13.0265 C   0  0  0  0  0  0  0  0  0  0  0  0
   -6.9887   11.7756  -13.1353 C   0  0  0  0  0  0  0  0  0  0  0  0
   -7.8163   10.0177  -11.7563 C   0  0  0  0  0  0  0  0  0  0  0  0
   -7.2425   10.6185  -10.6022 C   0  0  0  0  0  0  0  0  0  0  0  0
   -7.6172    9.7487   -9.5090 C   0  0  0  0  0  0  0  0  0  0  0  0
   -8.2846    8.7289   -9.9848 N   0  0  0  0  0  0  0  0  0  0  0  0
   -8.4176    8.8659  -11.2967 N   0  0  0  0  0  0  0  0  0  0  0  0
   -7.3368    9.8884   -8.0257 C   0  0  0  0  0  0  0  0  0  0  0  0
   -4.4023   13.6480  -11.4578 N   0  0  0  0  0  0  0  0  0  0  0  0
   -3.4623   14.7747  -11.4948 C   0  0  0  0  0  0  0  0  0  0  0  0
   -5.5331   13.6158  -12.1961 C   0  0  0  0  0  0  0  0  0  0  0  0
   -5.8776   14.5022  -12.9731 O   0  0  0  0  0  0  0  0  0  0  0  0
   -5.9585   10.4860   -7.7354 C   0  0  0  0  0  0  0  0  0  0  0  0
   -5.8494   11.7555   -7.1596 C   0  0  0  0  0  0  0  0  0  0  0  0
   -4.5968   12.3068   -6.9148 C   0  0  0  0  0  0  0  0  0  0  0  0
   -3.4468   11.5860   -7.2370 C   0  0  0  0  0  0  0  0  0  0  0  0
   -3.5513   10.3089   -7.8057 C   0  0  0  0  0  0  0  0  0  0  0  0
   -4.8090    9.7654   -8.0523 C   0  0  0  0  0  0  0  0  0  0  0  0
   -2.0901   12.1669   -6.9801 C   0  0  0  0  0  0  0  0  0  0  0  0
   -1.7479   13.4121   -6.4872 C   0  0  0  0  0  0  0  0  0  0  0  0
   -0.3990   13.4663   -6.4328 N   0  0  3  0  0  0  0  0  0  0  0  0
    0.1869   12.3691   -6.8386 N   0  0  0  0  0  0  0  0  0  0  0  0
   -0.8034   11.5628   -7.1902 C   0  0  0  0  0  0  0  0  0  0  0  0
    0.4389   14.5894   -5.9640 C   0  0  0  0  0  0  0  0  0  0  0  0
    1.5042   14.2139   -4.8744 C   0  0  0  0  0  0  0  0  0  0  0  0
    2.6302   13.6295   -5.4977 O   0  0  0  0  0  0  0  0  0  0  0  0
    0.9501   13.1612   -3.9053 C   0  0  0  0  0  0  0  0  0  0  0  0
    2.0179   15.4484   -4.1037 C   0  0  0  0  0  0  0  0  0  0  0  0
   -6.0641   12.2854   -9.8782 H   0  0  0  0  0  0  0  0  0  0  0  0
   -8.7448   10.7898  -13.3757 H   0  0  0  0  0  0  0  0  0  0  0  0
   -7.2513    9.8419  -13.6878 H   0  0  0  0  0  0  0  0  0  0  0  0
   -6.8965   12.2561  -14.0981 H   0  0  0  0  0  0  0  0  0  0  0  0
   -8.0357    9.5970   -7.2556 H   0  0  0  0  0  0  0  0  0  0  0  0
   -4.1971   12.8720  -10.8613 H   0  0  0  0  0  0  0  0  0  0  0  0
   -2.6221   14.5745  -10.8136 H   0  0  0  0  0  0  0  0  0  0  0  0
   -3.0817   14.9010  -12.5191 H   0  0  0  0  0  0  0  0  0  0  0  0
   -3.9787   15.6934  -11.1797 H   0  0  0  0  0  0  0  0  0  0  0  0
   -6.7407   12.3094   -6.9043 H   0  0  0  0  0  0  0  0  0  0  0  0
   -4.5143   13.2904   -6.4764 H   0  0  0  0  0  0  0  0  0  0  0  0
   -2.6607    9.7496   -8.0512 H   0  0  0  0  0  0  0  0  0  0  0  0
   -4.8939    8.7820   -8.4907 H   0  0  0  0  0  0  0  0  0  0  0  0
   -2.1296   14.1989   -7.1545 H   0  0  0  0  0  0  0  0  0  0  0  0
   -2.1709   13.5478   -5.4809 H   0  0  0  0  0  0  0  0  0  0  0  0
   -0.6606   10.5688   -7.5878 H   0  0  0  0  0  0  0  0  0  0  0  0
    0.9713   15.0036   -6.8329 H   0  0  0  0  0  0  0  0  0  0  0  0
   -0.2256   15.3572   -5.5409 H   0  0  0  0  0  0  0  0  0  0  0  0
    3.2752   13.4021   -4.8384 H   0  0  0  0  0  0  0  0  0  0  0  0
    1.7145   12.9160   -3.1533 H   0  0  0  0  0  0  0  0  0  0  0  0
    0.0563   13.5598   -3.4030 H   0  0  0  0  0  0  0  0  0  0  0  0
    0.6818   12.2530   -4.4649 H   0  0  0  0  0  0  0  0  0  0  0  0
    2.7591   15.1317   -3.3552 H   0  0  0  0  0  0  0  0  0  0  0  0
    2.4859   16.1517   -4.8082 H   0  0  0  0  0  0  0  0  0  0  0  0
    1.1747   15.9421   -3.5985 H   0  0  0  0  0  0  0  0  0  0  0  0
  1  2  1  0  0  0  0
  1  4  2  0  0  0  0
  1 13  1  0  0  0  0
  2  6  2  0  0  0  0
  3  4  1  0  0  0  0
  3  5  1  0  0  0  0
  5  6  1  0  0  0  0
  5  9  2  0  0  0  0
  6  7  1  0  0  0  0
  7  8  2  0  0  0  0
  7 10  1  0  0  0  0
  8  9  1  0  0  0  0
 10 15  2  0  0  0  0
 11 12  1  0  0  0  0
 11 13  1  0  0  0  0
 13 14  2  0  0  0  0
 15 16  1  0  0  0  0
 15 20  1  0  0  0  0
 16 17  2  0  0  0  0
 17 18  1  0  0  0  0
 18 19  1  0  0  0  0
 18 21  2  0  0  0  0
 19 20  2  0  0  0  0
 21 22  1  0  0  0  0
 21 25  1  0  0  0  0
 22 23  1  0  0  0  0
 23 24  1  0  0  0  0
 23 26  1  0  0  0  0
 24 25  2  0  0  0  0
 26 27  1  0  0  0  0
 27 28  1  0  0  0  0
 27 29  1  0  0  0  0
 27 30  1  0  0  0  0
  2 31  1  0  0  0  0
  3 32  1  0  0  0  0
  3 33  1  0  0  0  0
  4 34  1  0  0  0  0
 10 35  1  0  0  0  0
 11 36  1  0  0  0  0
 12 37  1  0  0  0  0
 12 38  1  0  0  0  0
 12 39  1  0  0  0  0
 16 40  1  0  0  0  0
 17 41  1  0  0  0  0
 19 42  1  0  0  0  0
 20 43  1  0  0  0  0
 22 44  1  0  0  0  0
 22 45  1  0  0  0  0
 25 46  1  0  0  0  0
 26 47  1  0  0  0  0
 26 48  1  0  0  0  0
 28 49  1  0  0  0  0
 29 50  1  0  0  0  0
 29 51  1  0  0  0  0
 29 52  1  0  0  0  0
 30 53  1  0  0  0  0
 30 54  1  0  0  0  0
 30 55  1  0  0  0  0
M  END
> <Name>
20

> <IC50[uM]>
0.016

$$$$
20
  -OEChem-05192314333D
 Structure written by MMmdl.
 55 58  0     1  0  0  0  0  0999 V2000
   -6.3740   12.3524  -12.0161 C   0  0  3  0  0  0  0  0  0  0  0  0
   -6.5100   11.8065  -10.7374 C   0  0  0  0  0  0  0  0  0  0  0  0
   -7.7222   10.5841  -13.0265 C   0  0  0  0  0  0  0  0  0  0  0  0
   -6.9887   11.7756  -13.1353 C   0  0  0  0  0  0  0  0  0  0  0  0
   -7.8163   10.0177  -11.7563 C   0  0  0  0  0  0  0  0  0  0  0  0
   -7.2425   10.6185  -10.6022 C   0  0  0  0  0  0  0  0  0  0  0  0
   -7.6172    9.7487   -9.5090 C   0  0  0  0  0  0  0  0  0  0  0  0
   -8.2846    8.7289   -9.9848 N   0  0  0  0  0  0  0  0  0  0  0  0
   -8.4176    8.8659  -11.2967 N   0  0  0  0  0  0  0  0  0  0  0  0
   -7.3368    9.8884   -8.0257 C   0  0  0  0  0  0  0  0  0  0  0  0
   -4.4023   13.6480  -11.4578 N   0  0  0  0  0  0  0  0  0  0  0  0
   -3.4623   14.7747  -11.4948 C   0  0  0  0  0  0  0  0  0  0  0  0
   -5.5331   13.6158  -12.1961 C   0  0  0  0  0  0  0  0  0  0  0  0
   -5.8776   14.5022  -12.9731 O   0  0  0  0  0  0  0  0  0  0  0  0
   -5.9585   10.4860   -7.7354 C   0  0  0  0  0  0  0  0  0  0  0  0
   -5.8494   11.7555   -7.1596 C   0  0  0  0  0  0  0  0  0  0  0  0
   -4.5968   12.3068   -6.9148 C   0  0  0  0  0  0  0  0  0  0  0  0
   -3.4468   11.5860   -7.2370 C   0  0  0  0  0  0  0  0  0  0  0  0
   -3.5513   10.3089   -7.8057 C   0  0  0  0  0  0  0  0  0  0  0  0
   -4.8090    9.7654   -8.0523 C   0  0  0  0  0  0  0  0  0  0  0  0
   -2.0901   12.1669   -6.9801 C   0  0  0  0  0  0  0  0  0  0  0  0
   -1.7479   13.4121   -6.4872 C   0  0  0  0  0  0  0  0  0  0  0  0
   -0.3990   13.4663   -6.4328 N   0  0  3  0  0  0  0  0  0  0  0  0
    0.1869   12.3691   -6.8386 N   0  0  0  0  0  0  0  0  0  0  0  0
   -0.8034   11.5628   -7.1902 C   0  0  0  0  0  0  0  0  0  0  0  0
    0.4389   14.5894   -5.9640 C   0  0  0  0  0  0  0  0  0  0  0  0
    1.5042   14.2139   -4.8744 C   0  0  0  0  0  0  0  0  0  0  0  0
    2.6302   13.6295   -5.4977 O   0  0  0  0  0  0  0  0  0  0  0  0
    0.9501   13.1612   -3.9053 C   0  0  0  0  0  0  0  0  0  0  0  0
    2.0179   15.4484   -4.1037 C   0  0  0  0  0  0  0  0  0  0  0  0
   -5.4811   11.7330  -12.1864 H   0  0  0  0  0  0  0  0  0  0  0  0
   -6.0641   12.2854   -9.8782 H   0  0  0  0  0  0  0  0  0  0  0  0
   -8.1913   10.1279  -13.8857 H   0  0  0  0  0  0  0  0  0  0  0  0
   -6.8965   12.2561  -14.0981 H   0  0  0  0  0  0  0  0  0  0  0  0
   -8.0357    9.5970   -7.2556 H   0  0  0  0  0  0  0  0  0  0  0  0
   -2.6221   14.5745  -10.8136 H   0  0  0  0  0  0  0  0  0  0  0  0
   -3.0817   14.9010  -12.5191 H   0  0  0  0  0  0  0  0  0  0  0  0
   -3.9787   15.6934  -11.1797 H   0  0  0  0  0  0  0  0  0  0  0  0
   -5.2393   15.2056  -12.9549 H   0  0  0  0  0  0  0  0  0  0  0  0
   -6.7407   12.3094   -6.9043 H   0  0  0  0  0  0  0  0  0  0  0  0
   -4.5143   13.2904   -6.4764 H   0  0  0  0  0  0  0  0  0  0  0  0
   -2.6607    9.7496   -8.0512 H   0  0  0  0  0  0  0  0  0  0  0  0
   -4.8939    8.7820   -8.4907 H   0  0  0  0  0  0  0  0  0  0  0  0
   -2.1296   14.1989   -7.1545 H   0  0  0  0  0  0  0  0  0  0  0  0
   -2.1709   13.5478   -5.4809 H   0  0  0  0  0  0  0  0  0  0  0  0
   -0.6606   10.5688   -7.5878 H   0  0  0  0  0  0  0  0  0  0  0  0
    0.9713   15.0036   -6.8329 H   0  0  0  0  0  0  0  0  0  0  0  0
   -0.2256   15.3572   -5.5409 H   0  0  0  0  0  0  0  0  0  0  0  0
    3.2752   13.4021   -4.8384 H   0  0  0  0  0  0  0  0  0  0  0  0
    1.7145   12.9160   -3.1533 H   0  0  0  0  0  0  0  0  0  0  0  0
    0.0563   13.5598   -3.4030 H   0  0  0  0  0  0  0  0  0  0  0  0
    0.6818   12.2530   -4.4649 H   0  0  0  0  0  0  0  0  0  0  0  0
    2.7591   15.1317   -3.3552 H   0  0  0  0  0  0  0  0  0  0  0  0
    2.4859   16.1517   -4.8082 H   0  0  0  0  0  0  0  0  0  0  0  0
    1.1747   15.9421   -3.5985 H   0  0  0  0  0  0  0  0  0  0  0  0
  1  2  1  0  0  0  0
  1  4  1  0  0  0  0
  1 13  1  0  0  0  0
  2  6  2  0  0  0  0
  3  4  2  0  0  0  0
  3  5  1  0  0  0  0
  5  6  1  0  0  0  0
  5  9  2  0  0  0  0
  6  7  1  0  0  0  0
  7  8  2  0  0  0  0
  7 10  1  0  0  0  0
  8  9  1  0  0  0  0
 10 15  2  0  0  0  0
 11 12  1  0  0  0  0
 11 13  2  0  0  0  0
 13 14  1  0  0  0  0
 15 16  1  0  0  0  0
 15 20  1  0  0  0  0
 16 17  2  0  0  0  0
 17 18  1  0  0  0  0
 18 19  1  0  0  0  0
 18 21  2  0  0  0  0
 19 20  2  0  0  0  0
 21 22  1  0  0  0  0
 21 25  1  0  0  0  0
 22 23  1  0  0  0  0
 23 24  1  0  0  0  0
 23 26  1  0  0  0  0
 24 25  2  0  0  0  0
 26 27  1  0  0  0  0
 27 28  1  0  0  0  0
 27 29  1  0  0  0  0
 27 30  1  0  0  0  0
  1 31  1  0  0  0  0
  2 32  1  0  0  0  0
  3 33  1  0  0  0  0
  4 34  1  0  0  0  0
 10 35  1  0  0  0  0
 12 36  1  0  0  0  0
 12 37  1  0  0  0  0
 12 38  1  0  0  0  0
 14 39  1  0  0  0  0
 16 40  1  0  0  0  0
 17 41  1  0  0  0  0
 19 42  1  0  0  0  0
 20 43  1  0  0  0  0
 22 44  1  0  0  0  0
 22 45  1  0  0  0  0
 25 46  1  0  0  0  0
 26 47  1  0  0  0  0
 26 48  1  0  0  0  0
 28 49  1  0  0  0  0
 29 50  1  0  0  0  0
 29 51  1  0  0  0  0
 29 52  1  0  0  0  0
 30 53  1  0  0  0  0
 30 54  1  0  0  0  0
 30 55  1  0  0  0  0
M  END
> <Name>
20

> <IC50[uM]>
0.016

$$$$
20
  -OEChem-05192314333D
 Structure written by MMmdl.
 55 58  0     1  0  0  0  0  0999 V2000
   -6.3740   12.3524  -12.0161 C   0  0  0  0  0  0  0  0  0  0  0  0
   -6.5100   11.8065  -10.7374 C   0  0  0  0  0  0  0  0  0  0  0  0
   -7.7222   10.5841  -13.0265 C   0  0  0  0  0  0  0  0  0  0  0  0
   -6.9887   11.7756  -13.1353 C   0  0  0  0  0  0  0  0  0  0  0  0
   -7.8163   10.0177  -11.7563 C   0  0  0  0  0  0  0  0  0  0  0  0
   -7.2425   10.6185  -10.6022 C   0  0  3  0  0  0  0  0  0  0  0  0
   -7.6172    9.7487   -9.5090 C   0  0  0  0  0  0  0  0  0  0  0  0
   -8.2846    8.7289   -9.9848 N   0  0  0  0  0  0  0  0  0  0  0  0
   -8.4176    8.8659  -11.2967 N   0  0  0  0  0  0  0  0  0  0  0  0
   -7.3368    9.8884   -8.0257 C   0  0  0  0  0  0  0  0  0  0  0  0
   -4.4023   13.6480  -11.4578 N   0  0  0  0  0  0  0  0  0  0  0  0
   -3.4623   14.7747  -11.4948 C   0  0  0  0  0  0  0  0  0  0  0  0
   -5.5331   13.6158  -12.1961 C   0  0  0  0  0  0  0  0  0  0  0  0
   -5.8776   14.5022  -12.9731 O   0  0  0  0  0  0  0  0  0  0  0  0
   -5.9585   10.4860   -7.7354 C   0  0  0  0  0  0  0  0  0  0  0  0
   -5.8494   11.7555   -7.1596 C   0  0  0  0  0  0  0  0  0  0  0  0
   -4.5968   12.3068   -6.9148 C   0  0  0  0  0  0  0  0  0  0  0  0
   -3.4468   11.5860   -7.2370 C   0  0  0  0  0  0  0  0  0  0  0  0
   -3.5513   10.3089   -7.8057 C   0  0  0  0  0  0  0  0  0  0  0  0
   -4.8090    9.7654   -8.0523 C   0  0  0  0  0  0  0  0  0  0  0  0
   -2.0901   12.1669   -6.9801 C   0  0  0  0  0  0  0  0  0  0  0  0
   -1.7479   13.4121   -6.4872 C   0  0  0  0  0  0  0  0  0  0  0  0
   -0.3990   13.4663   -6.4328 N   0  0  3  0  0  0  0  0  0  0  0  0
    0.1869   12.3691   -6.8386 N   0  0  0  0  0  0  0  0  0  0  0  0
   -0.8034   11.5628   -7.1902 C   0  0  0  0  0  0  0  0  0  0  0  0
    0.4389   14.5894   -5.9640 C   0  0  0  0  0  0  0  0  0  0  0  0
    1.5042   14.2139   -4.8744 C   0  0  0  0  0  0  0  0  0  0  0  0
    2.6302   13.6295   -5.4977 O   0  0  0  0  0  0  0  0  0  0  0  0
    0.9501   13.1612   -3.9053 C   0  0  0  0  0  0  0  0  0  0  0  0
    2.0179   15.4484   -4.1037 C   0  0  0  0  0  0  0  0  0  0  0  0
   -6.0641   12.2854   -9.8782 H   0  0  0  0  0  0  0  0  0  0  0  0
   -8.1913   10.1279  -13.8857 H   0  0  0  0  0  0  0  0  0  0  0  0
   -6.8965   12.2561  -14.0981 H   0  0  0  0  0  0  0  0  0  0  0  0
   -6.3233   10.0335  -10.7537 H   0  0  0  0  0  0  0  0  0  0  0  0
   -8.0357    9.5970   -7.2556 H   0  0  0  0  0  0  0  0  0  0  0  0
   -2.6221   14.5745  -10.8136 H   0  0  0  0  0  0  0  0  0  0  0  0
   -3.0817   14.9010  -12.5191 H   0  0  0  0  0  0  0  0  0  0  0  0
   -3.9787   15.6934  -11.1797 H   0  0  0  0  0  0  0  0  0  0  0  0
   -5.2393   15.2056  -12.9549 H   0  0  0  0  0  0  0  0  0  0  0  0
   -6.7407   12.3094   -6.9043 H   0  0  0  0  0  0  0  0  0  0  0  0
   -4.5143   13.2904   -6.4764 H   0  0  0  0  0  0  0  0  0  0  0  0
   -2.6607    9.7496   -8.0512 H   0  0  0  0  0  0  0  0  0  0  0  0
   -4.8939    8.7820   -8.4907 H   0  0  0  0  0  0  0  0  0  0  0  0
   -2.1296   14.1989   -7.1545 H   0  0  0  0  0  0  0  0  0  0  0  0
   -2.1709   13.5478   -5.4809 H   0  0  0  0  0  0  0  0  0  0  0  0
   -0.6606   10.5688   -7.5878 H   0  0  0  0  0  0  0  0  0  0  0  0
    0.9713   15.0036   -6.8329 H   0  0  0  0  0  0  0  0  0  0  0  0
   -0.2256   15.3572   -5.5409 H   0  0  0  0  0  0  0  0  0  0  0  0
    3.2752   13.4021   -4.8384 H   0  0  0  0  0  0  0  0  0  0  0  0
    1.7145   12.9160   -3.1533 H   0  0  0  0  0  0  0  0  0  0  0  0
    0.0563   13.5598   -3.4030 H   0  0  0  0  0  0  0  0  0  0  0  0
    0.6818   12.2530   -4.4649 H   0  0  0  0  0  0  0  0  0  0  0  0
    2.7591   15.1317   -3.3552 H   0  0  0  0  0  0  0  0  0  0  0  0
    2.4859   16.1517   -4.8082 H   0  0  0  0  0  0  0  0  0  0  0  0
    1.1747   15.9421   -3.5985 H   0  0  0  0  0  0  0  0  0  0  0  0
  1  2  2  0  0  0  0
  1  4  1  0  0  0  0
  1 13  1  0  0  0  0
  2  6  1  0  0  0  0
  3  4  2  0  0  0  0
  3  5  1  0  0  0  0
  5  6  1  0  0  0  0
  5  9  2  0  0  0  0
  6  7  1  0  0  0  0
  7  8  2  0  0  0  0
  7 10  1  0  0  0  0
  8  9  1  0  0  0  0
 10 15  2  0  0  0  0
 11 12  1  0  0  0  0
 11 13  2  0  0  0  0
 13 14  1  0  0  0  0
 15 16  1  0  0  0  0
 15 20  1  0  0  0  0
 16 17  2  0  0  0  0
 17 18  1  0  0  0  0
 18 19  1  0  0  0  0
 18 21  2  0  0  0  0
 19 20  2  0  0  0  0
 21 22  1  0  0  0  0
 21 25  1  0  0  0  0
 22 23  1  0  0  0  0
 23 24  1  0  0  0  0
 23 26  1  0  0  0  0
 24 25  2  0  0  0  0
 26 27  1  0  0  0  0
 27 28  1  0  0  0  0
 27 29  1  0  0  0  0
 27 30  1  0  0  0  0
  2 31  1  0  0  0  0
  3 32  1  0  0  0  0
  4 33  1  0  0  0  0
  6 34  1  0  0  0  0
 10 35  1  0  0  0  0
 12 36  1  0  0  0  0
 12 37  1  0  0  0  0
 12 38  1  0  0  0  0
 14 39  1  0  0  0  0
 16 40  1  0  0  0  0
 17 41  1  0  0  0  0
 19 42  1  0  0  0  0
 20 43  1  0  0  0  0
 22 44  1  0  0  0  0
 22 45  1  0  0  0  0
 25 46  1  0  0  0  0
 26 47  1  0  0  0  0
 26 48  1  0  0  0  0
 28 49  1  0  0  0  0
 29 50  1  0  0  0  0
 29 51  1  0  0  0  0
 29 52  1  0  0  0  0
 30 53  1  0  0  0  0
 30 54  1  0  0  0  0
 30 55  1  0  0  0  0
M  END
> <Name>
20

> <IC50[uM]>
0.016

$$$$
20
  -OEChem-05192314333D
 Structure written by MMmdl.
 55 58  0     1  0  0  0  0  0999 V2000
   -6.3740   12.3524  -12.0161 C   0  0  0  0  0  0  0  0  0  0  0  0
   -6.5100   11.8065  -10.7374 C   0  0  0  0  0  0  0  0  0  0  0  0
   -7.7222   10.5841  -13.0265 C   0  0  0  0  0  0  0  0  0  0  0  0
   -6.9887   11.7756  -13.1353 C   0  0  0  0  0  0  0  0  0  0  0  0
   -7.8163   10.0177  -11.7563 C   0  0  0  0  0  0  0  0  0  0  0  0
   -7.2425   10.6185  -10.6022 C   0  0  0  0  0  0  0  0  0  0  0  0
   -7.6172    9.7487   -9.5090 C   0  0  0  0  0  0  0  0  0  0  0  0
   -8.2846    8.7289   -9.9848 N   0  0  0  0  0  0  0  0  0  0  0  0
   -8.4176    8.8659  -11.2967 N   0  0  0  0  0  0  0  0  0  0  0  0
   -7.3368    9.8884   -8.0257 C   0  0  0  0  0  0  0  0  0  0  0  0
   -4.4023   13.6480  -11.4578 N   0  0  0  0  0  0  0  0  0  0  0  0
   -3.4623   14.7747  -11.4948 C   0  0  0  0  0  0  0  0  0  0  0  0
   -5.5331   13.6158  -12.1961 C   0  0  0  0  0  0  0  0  0  0  0  0
   -5.8776   14.5022  -12.9731 O   0  0  0  0  0  0  0  0  0  0  0  0
   -5.9585   10.4860   -7.7354 C   0  0  0  0  0  0  0  0  0  0  0  0
   -5.8494   11.7555   -7.1596 C   0  0  0  0  0  0  0  0  0  0  0  0
   -4.5968   12.3068   -6.9148 C   0  0  0  0  0  0  0  0  0  0  0  0
   -3.4468   11.5860   -7.2370 C   0  0  0  0  0  0  0  0  0  0  0  0
   -3.5513   10.3089   -7.8057 C   0  0  0  0  0  0  0  0  0  0  0  0
   -4.8090    9.7654   -8.0523 C   0  0  0  0  0  0  0  0  0  0  0  0
   -2.0901   12.1669   -6.9801 C   0  0  0  0  0  0  0  0  0  0  0  0
   -1.7479   13.4121   -6.4872 C   0  0  0  0  0  0  0  0  0  0  0  0
   -0.3990   13.4663   -6.4328 N   0  0  3  0  0  0  0  0  0  0  0  0
    0.1869   12.3691   -6.8386 N   0  0  0  0  0  0  0  0  0  0  0  0
   -0.8034   11.5628   -7.1902 C   0  0  0  0  0  0  0  0  0  0  0  0
    0.4389   14.5894   -5.9640 C   0  0  0  0  0  0  0  0  0  0  0  0
    1.5042   14.2139   -4.8744 C   0  0  0  0  0  0  0  0  0  0  0  0
    2.6302   13.6295   -5.4977 O   0  0  0  0  0  0  0  0  0  0  0  0
    0.9501   13.1612   -3.9053 C   0  0  0  0  0  0  0  0  0  0  0  0
    2.0179   15.4484   -4.1037 C   0  0  0  0  0  0  0  0  0  0  0  0
   -6.0641   12.2854   -9.8782 H   0  0  0  0  0  0  0  0  0  0  0  0
   -8.7448   10.7898  -13.3757 H   0  0  0  0  0  0  0  0  0  0  0  0
   -7.2513    9.8419  -13.6878 H   0  0  0  0  0  0  0  0  0  0  0  0
   -6.8965   12.2561  -14.0981 H   0  0  0  0  0  0  0  0  0  0  0  0
   -8.0357    9.5970   -7.2556 H   0  0  0  0  0  0  0  0  0  0  0  0
   -2.6221   14.5745  -10.8136 H   0  0  0  0  0  0  0  0  0  0  0  0
   -3.0817   14.9010  -12.5191 H   0  0  0  0  0  0  0  0  0  0  0  0
   -3.9787   15.6934  -11.1797 H   0  0  0  0  0  0  0  0  0  0  0  0
   -5.2393   15.2056  -12.9549 H   0  0  0  0  0  0  0  0  0  0  0  0
   -6.7407   12.3094   -6.9043 H   0  0  0  0  0  0  0  0  0  0  0  0
   -4.5143   13.2904   -6.4764 H   0  0  0  0  0  0  0  0  0  0  0  0
   -2.6607    9.7496   -8.0512 H   0  0  0  0  0  0  0  0  0  0  0  0
   -4.8939    8.7820   -8.4907 H   0  0  0  0  0  0  0  0  0  0  0  0
   -2.1296   14.1989   -7.1545 H   0  0  0  0  0  0  0  0  0  0  0  0
   -2.1709   13.5478   -5.4809 H   0  0  0  0  0  0  0  0  0  0  0  0
   -0.6606   10.5688   -7.5878 H   0  0  0  0  0  0  0  0  0  0  0  0
    0.9713   15.0036   -6.8329 H   0  0  0  0  0  0  0  0  0  0  0  0
   -0.2256   15.3572   -5.5409 H   0  0  0  0  0  0  0  0  0  0  0  0
    3.2752   13.4021   -4.8384 H   0  0  0  0  0  0  0  0  0  0  0  0
    1.7145   12.9160   -3.1533 H   0  0  0  0  0  0  0  0  0  0  0  0
    0.0563   13.5598   -3.4030 H   0  0  0  0  0  0  0  0  0  0  0  0
    0.6818   12.2530   -4.4649 H   0  0  0  0  0  0  0  0  0  0  0  0
    2.7591   15.1317   -3.3552 H   0  0  0  0  0  0  0  0  0  0  0  0
    2.4859   16.1517   -4.8082 H   0  0  0  0  0  0  0  0  0  0  0  0
    1.1747   15.9421   -3.5985 H   0  0  0  0  0  0  0  0  0  0  0  0
  1  2  1  0  0  0  0
  1  4  2  0  0  0  0
  1 13  1  0  0  0  0
  2  6  2  0  0  0  0
  3  4  1  0  0  0  0
  3  5  1  0  0  0  0
  5  6  1  0  0  0  0
  5  9  2  0  0  0  0
  6  7  1  0  0  0  0
  7  8  2  0  0  0  0
  7 10  1  0  0  0  0
  8  9  1  0  0  0  0
 10 15  2  0  0  0  0
 11 12  1  0  0  0  0
 11 13  2  0  0  0  0
 13 14  1  0  0  0  0
 15 16  1  0  0  0  0
 15 20  1  0  0  0  0
 16 17  2  0  0  0  0
 17 18  1  0  0  0  0
 18 19  1  0  0  0  0
 18 21  2  0  0  0  0
 19 20  2  0  0  0  0
 21 22  1  0  0  0  0
 21 25  1  0  0  0  0
 22 23  1  0  0  0  0
 23 24  1  0  0  0  0
 23 26  1  0  0  0  0
 24 25  2  0  0  0  0
 26 27  1  0  0  0  0
 27 28  1  0  0  0  0
 27 29  1  0  0  0  0
 27 30  1  0  0  0  0
  2 31  1  0  0  0  0
  3 32  1  0  0  0  0
  3 33  1  0  0  0  0
  4 34  1  0  0  0  0
 10 35  1  0  0  0  0
 12 36  1  0  0  0  0
 12 37  1  0  0  0  0
 12 38  1  0  0  0  0
 14 39  1  0  0  0  0
 16 40  1  0  0  0  0
 17 41  1  0  0  0  0
 19 42  1  0  0  0  0
 20 43  1  0  0  0  0
 22 44  1  0  0  0  0
 22 45  1  0  0  0  0
 25 46  1  0  0  0  0
 26 47  1  0  0  0  0
 26 48  1  0  0  0  0
 28 49  1  0  0  0  0
 29 50  1  0  0  0  0
 29 51  1  0  0  0  0
 29 52  1  0  0  0  0
 30 53  1  0  0  0  0
 30 54  1  0  0  0  0
 30 55  1  0  0  0  0
M  END
> <Name>
20

> <IC50[uM]>
0.016

$$$$
20
  -OEChem-05192314333D
 Structure written by MMmdl.
 55 58  0     1  0  0  0  0  0999 V2000
   -6.3740   12.3524  -12.0161 C   0  0  0  0  0  0  0  0  0  0  0  0
   -6.5100   11.8065  -10.7374 C   0  0  0  0  0  0  0  0  0  0  0  0
   -7.7222   10.5841  -13.0265 C   0  0  0  0  0  0  0  0  0  0  0  0
   -6.9887   11.7756  -13.1353 C   0  0  0  0  0  0  0  0  0  0  0  0
   -7.8163   10.0177  -11.7563 C   0  0  3  0  0  0  0  0  0  0  0  0
   -7.2425   10.6185  -10.6022 C   0  0  0  0  0  0  0  0  0  0  0  0
   -7.6172    9.7487   -9.5090 C   0  0  0  0  0  0  0  0  0  0  0  0
   -8.2846    8.7289   -9.9848 N   0  0  0  0  0  0  0  0  0  0  0  0
   -8.4176    8.8659  -11.2967 N   0  0  0  0  0  0  0  0  0  0  0  0
   -7.3368    9.8884   -8.0257 C   0  0  0  0  0  0  0  0  0  0  0  0
   -4.4023   13.6480  -11.4578 N   0  0  0  0  0  0  0  0  0  0  0  0
   -3.4623   14.7747  -11.4948 C   0  0  0  0  0  0  0  0  0  0  0  0
   -5.5331   13.6158  -12.1961 C   0  0  0  0  0  0  0  0  0  0  0  0
   -5.8776   14.5022  -12.9731 O   0  0  0  0  0  0  0  0  0  0  0  0
   -5.9585   10.4860   -7.7354 C   0  0  0  0  0  0  0  0  0  0  0  0
   -5.8494   11.7555   -7.1596 C   0  0  0  0  0  0  0  0  0  0  0  0
   -4.5968   12.3068   -6.9148 C   0  0  0  0  0  0  0  0  0  0  0  0
   -3.4468   11.5860   -7.2370 C   0  0  0  0  0  0  0  0  0  0  0  0
   -3.5513   10.3089   -7.8057 C   0  0  0  0  0  0  0  0  0  0  0  0
   -4.8090    9.7654   -8.0523 C   0  0  0  0  0  0  0  0  0  0  0  0
   -2.0901   12.1669   -6.9801 C   0  0  0  0  0  0  0  0  0  0  0  0
   -1.7479   13.4121   -6.4872 C   0  0  0  0  0  0  0  0  0  0  0  0
   -0.3990   13.4663   -6.4328 N   0  0  3  0  0  0  0  0  0  0  0  0
    0.1869   12.3691   -6.8386 N   0  0  0  0  0  0  0  0  0  0  0  0
   -0.8034   11.5628   -7.1902 C   0  0  0  0  0  0  0  0  0  0  0  0
    0.4389   14.5894   -5.9640 C   0  0  0  0  0  0  0  0  0  0  0  0
    1.5042   14.2139   -4.8744 C   0  0  0  0  0  0  0  0  0  0  0  0
    2.6302   13.6295   -5.4977 O   0  0  0  0  0  0  0  0  0  0  0  0
    0.9501   13.1612   -3.9053 C   0  0  0  0  0  0  0  0  0  0  0  0
    2.0179   15.4484   -4.1037 C   0  0  0  0  0  0  0  0  0  0  0  0
   -6.0641   12.2854   -9.8782 H   0  0  0  0  0  0  0  0  0  0  0  0
   -8.1913   10.1279  -13.8857 H   0  0  0  0  0  0  0  0  0  0  0  0
   -6.8965   12.2561  -14.0981 H   0  0  0  0  0  0  0  0  0  0  0  0
   -6.8834    9.4622  -11.9330 H   0  0  0  0  0  0  0  0  0  0  0  0
   -8.0357    9.5970   -7.2556 H   0  0  0  0  0  0  0  0  0  0  0  0
   -4.1971   12.8720  -10.8613 H   0  0  0  0  0  0  0  0  0  0  0  0
   -2.6221   14.5745  -10.8136 H   0  0  0  0  0  0  0  0  0  0  0  0
   -3.0817   14.9010  -12.5191 H   0  0  0  0  0  0  0  0  0  0  0  0
   -3.9787   15.6934  -11.1797 H   0  0  0  0  0  0  0  0  0  0  0  0
   -6.7407   12.3094   -6.9043 H   0  0  0  0  0  0  0  0  0  0  0  0
   -4.5143   13.2904   -6.4764 H   0  0  0  0  0  0  0  0  0  0  0  0
   -2.6607    9.7496   -8.0512 H   0  0  0  0  0  0  0  0  0  0  0  0
   -4.8939    8.7820   -8.4907 H   0  0  0  0  0  0  0  0  0  0  0  0
   -2.1296   14.1989   -7.1545 H   0  0  0  0  0  0  0  0  0  0  0  0
   -2.1709   13.5478   -5.4809 H   0  0  0  0  0  0  0  0  0  0  0  0
   -0.6606   10.5688   -7.5878 H   0  0  0  0  0  0  0  0  0  0  0  0
    0.9713   15.0036   -6.8329 H   0  0  0  0  0  0  0  0  0  0  0  0
   -0.2256   15.3572   -5.5409 H   0  0  0  0  0  0  0  0  0  0  0  0
    3.2752   13.4021   -4.8384 H   0  0  0  0  0  0  0  0  0  0  0  0
    1.7145   12.9160   -3.1533 H   0  0  0  0  0  0  0  0  0  0  0  0
    0.0563   13.5598   -3.4030 H   0  0  0  0  0  0  0  0  0  0  0  0
    0.6818   12.2530   -4.4649 H   0  0  0  0  0  0  0  0  0  0  0  0
    2.7591   15.1317   -3.3552 H   0  0  0  0  0  0  0  0  0  0  0  0
    2.4859   16.1517   -4.8082 H   0  0  0  0  0  0  0  0  0  0  0  0
    1.1747   15.9421   -3.5985 H   0  0  0  0  0  0  0  0  0  0  0  0
  1  2  2  0  0  0  0
  1  4  1  0  0  0  0
  1 13  1  0  0  0  0
  2  6  1  0  0  0  0
  3  4  2  0  0  0  0
  3  5  1  0  0  0  0
  5  6  1  0  0  0  0
  5  9  1  0  0  0  0
  6  7  2  0  0  0  0
  7  8  1  0  0  0  0
  7 10  1  0  0  0  0
  8  9  2  0  0  0  0
 10 15  2  0  0  0  0
 11 12  1  0  0  0  0
 11 13  1  0  0  0  0
 13 14  2  0  0  0  0
 15 16  1  0  0  0  0
 15 20  1  0  0  0  0
 16 17  2  0  0  0  0
 17 18  1  0  0  0  0
 18 19  1  0  0  0  0
 18 21  2  0  0  0  0
 19 20  2  0  0  0  0
 21 22  1  0  0  0  0
 21 25  1  0  0  0  0
 22 23  1  0  0  0  0
 23 24  1  0  0  0  0
 23 26  1  0  0  0  0
 24 25  2  0  0  0  0
 26 27  1  0  0  0  0
 27 28  1  0  0  0  0
 27 29  1  0  0  0  0
 27 30  1  0  0  0  0
  2 31  1  0  0  0  0
  3 32  1  0  0  0  0
  4 33  1  0  0  0  0
  5 34  1  0  0  0  0
 10 35  1  0  0  0  0
 11 36  1  0  0  0  0
 12 37  1  0  0  0  0
 12 38  1  0  0  0  0
 12 39  1  0  0  0  0
 16 40  1  0  0  0  0
 17 41  1  0  0  0  0
 19 42  1  0  0  0  0
 20 43  1  0  0  0  0
 22 44  1  0  0  0  0
 22 45  1  0  0  0  0
 25 46  1  0  0  0  0
 26 47  1  0  0  0  0
 26 48  1  0  0  0  0
 28 49  1  0  0  0  0
 29 50  1  0  0  0  0
 29 51  1  0  0  0  0
 29 52  1  0  0  0  0
 30 53  1  0  0  0  0
 30 54  1  0  0  0  0
 30 55  1  0  0  0  0
M  END
> <Name>
20

> <IC50[uM]>
0.016

$$$$
20
  -OEChem-05192314333D
 Structure written by MMmdl.
 55 58  0     1  0  0  0  0  0999 V2000
   -6.3740   12.3524  -12.0161 C   0  0  0  0  0  0  0  0  0  0  0  0
   -6.5100   11.8065  -10.7374 C   0  0  0  0  0  0  0  0  0  0  0  0
   -7.7222   10.5841  -13.0265 C   0  0  0  0  0  0  0  0  0  0  0  0
   -6.9887   11.7756  -13.1353 C   0  0  0  0  0  0  0  0  0  0  0  0
   -7.8163   10.0177  -11.7563 C   0  0  0  0  0  0  0  0  0  0  0  0
   -7.2425   10.6185  -10.6022 C   0  0  0  0  0  0  0  0  0  0  0  0
   -7.6172    9.7487   -9.5090 C   0  0  0  0  0  0  0  0  0  0  0  0
   -8.2846    8.7289   -9.9848 N   0  0  0  0  0  0  0  0  0  0  0  0
   -8.4176    8.8659  -11.2967 N   0  0  0  0  0  0  0  0  0  0  0  0
   -7.3368    9.8884   -8.0257 C   0  0  0  0  0  0  0  0  0  0  0  0
   -4.4023   13.6480  -11.4578 N   0  0  0  0  0  0  0  0  0  0  0  0
   -3.4623   14.7747  -11.4948 C   0  0  0  0  0  0  0  0  0  0  0  0
   -5.5331   13.6158  -12.1961 C   0  0  0  0  0  0  0  0  0  0  0  0
   -5.8776   14.5022  -12.9731 O   0  0  0  0  0  0  0  0  0  0  0  0
   -5.9585   10.4860   -7.7354 C   0  0  0  0  0  0  0  0  0  0  0  0
   -5.8494   11.7555   -7.1596 C   0  0  0  0  0  0  0  0  0  0  0  0
   -4.5968   12.3068   -6.9148 C   0  0  0  0  0  0  0  0  0  0  0  0
   -3.4468   11.5860   -7.2370 C   0  0  0  0  0  0  0  0  0  0  0  0
   -3.5513   10.3089   -7.8057 C   0  0  0  0  0  0  0  0  0  0  0  0
   -4.8090    9.7654   -8.0523 C   0  0  0  0  0  0  0  0  0  0  0  0
   -2.0901   12.1669   -6.9801 C   0  0  0  0  0  0  0  0  0  0  0  0
   -1.7479   13.4121   -6.4872 C   0  0  0  0  0  0  0  0  0  0  0  0
   -0.3990   13.4663   -6.4328 N   0  0  3  0  0  0  0  0  0  0  0  0
    0.1869   12.3691   -6.8386 N   0  0  0  0  0  0  0  0  0  0  0  0
   -0.8034   11.5628   -7.1902 C   0  0  0  0  0  0  0  0  0  0  0  0
    0.4389   14.5894   -5.9640 C   0  0  0  0  0  0  0  0  0  0  0  0
    1.5042   14.2139   -4.8744 C   0  0  0  0  0  0  0  0  0  0  0  0
    2.6302   13.6295   -5.4977 O   0  0  0  0  0  0  0  0  0  0  0  0
    0.9501   13.1612   -3.9053 C   0  0  0  0  0  0  0  0  0  0  0  0
    2.0179   15.4484   -4.1037 C   0  0  0  0  0  0  0  0  0  0  0  0
   -6.0641   12.2854   -9.8782 H   0  0  0  0  0  0  0  0  0  0  0  0
   -8.1913   10.1279  -13.8857 H   0  0  0  0  0  0  0  0  0  0  0  0
   -7.6795   12.5319  -13.5364 H   0  0  0  0  0  0  0  0  0  0  0  0
   -6.1895   11.5845  -13.8665 H   0  0  0  0  0  0  0  0  0  0  0  0
   -8.0357    9.5970   -7.2556 H   0  0  0  0  0  0  0  0  0  0  0  0
   -4.1971   12.8720  -10.8613 H   0  0  0  0  0  0  0  0  0  0  0  0
   -2.6221   14.5745  -10.8136 H   0  0  0  0  0  0  0  0  0  0  0  0
   -3.0817   14.9010  -12.5191 H   0  0  0  0  0  0  0  0  0  0  0  0
   -3.9787   15.6934  -11.1797 H   0  0  0  0  0  0  0  0  0  0  0  0
   -6.7407   12.3094   -6.9043 H   0  0  0  0  0  0  0  0  0  0  0  0
   -4.5143   13.2904   -6.4764 H   0  0  0  0  0  0  0  0  0  0  0  0
   -2.6607    9.7496   -8.0512 H   0  0  0  0  0  0  0  0  0  0  0  0
   -4.8939    8.7820   -8.4907 H   0  0  0  0  0  0  0  0  0  0  0  0
   -2.1296   14.1989   -7.1545 H   0  0  0  0  0  0  0  0  0  0  0  0
   -2.1709   13.5478   -5.4809 H   0  0  0  0  0  0  0  0  0  0  0  0
   -0.6606   10.5688   -7.5878 H   0  0  0  0  0  0  0  0  0  0  0  0
    0.9713   15.0036   -6.8329 H   0  0  0  0  0  0  0  0  0  0  0  0
   -0.2256   15.3572   -5.5409 H   0  0  0  0  0  0  0  0  0  0  0  0
    3.2752   13.4021   -4.8384 H   0  0  0  0  0  0  0  0  0  0  0  0
    1.7145   12.9160   -3.1533 H   0  0  0  0  0  0  0  0  0  0  0  0
    0.0563   13.5598   -3.4030 H   0  0  0  0  0  0  0  0  0  0  0  0
    0.6818   12.2530   -4.4649 H   0  0  0  0  0  0  0  0  0  0  0  0
    2.7591   15.1317   -3.3552 H   0  0  0  0  0  0  0  0  0  0  0  0
    2.4859   16.1517   -4.8082 H   0  0  0  0  0  0  0  0  0  0  0  0
    1.1747   15.9421   -3.5985 H   0  0  0  0  0  0  0  0  0  0  0  0
  1  2  2  0  0  0  0
  1  4  1  0  0  0  0
  1 13  1  0  0  0  0
  2  6  1  0  0  0  0
  3  4  1  0  0  0  0
  3  5  2  0  0  0  0
  5  6  1  0  0  0  0
  5  9  1  0  0  0  0
  6  7  2  0  0  0  0
  7  8  1  0  0  0  0
  7 10  1  0  0  0  0
  8  9  2  0  0  0  0
 10 15  2  0  0  0  0
 11 12  1  0  0  0  0
 11 13  1  0  0  0  0
 13 14  2  0  0  0  0
 15 16  1  0  0  0  0
 15 20  1  0  0  0  0
 16 17  2  0  0  0  0
 17 18  1  0  0  0  0
 18 19  1  0  0  0  0
 18 21  2  0  0  0  0
 19 20  2  0  0  0  0
 21 22  1  0  0  0  0
 21 25  1  0  0  0  0
 22 23  1  0  0  0  0
 23 24  1  0  0  0  0
 23 26  1  0  0  0  0
 24 25  2  0  0  0  0
 26 27  1  0  0  0  0
 27 28  1  0  0  0  0
 27 29  1  0  0  0  0
 27 30  1  0  0  0  0
  2 31  1  0  0  0  0
  3 32  1  0  0  0  0
  4 33  1  0  0  0  0
  4 34  1  0  0  0  0
 10 35  1  0  0  0  0
 11 36  1  0  0  0  0
 12 37  1  0  0  0  0
 12 38  1  0  0  0  0
 12 39  1  0  0  0  0
 16 40  1  0  0  0  0
 17 41  1  0  0  0  0
 19 42  1  0  0  0  0
 20 43  1  0  0  0  0
 22 44  1  0  0  0  0
 22 45  1  0  0  0  0
 25 46  1  0  0  0  0
 26 47  1  0  0  0  0
 26 48  1  0  0  0  0
 28 49  1  0  0  0  0
 29 50  1  0  0  0  0
 29 51  1  0  0  0  0
 29 52  1  0  0  0  0
 30 53  1  0  0  0  0
 30 54  1  0  0  0  0
 30 55  1  0  0  0  0
M  END
> <Name>
20

> <IC50[uM]>
0.016

$$$$
20
  -OEChem-05192314333D
 Structure written by MMmdl.
 55 58  0     1  0  0  0  0  0999 V2000
   -6.3740   12.3524  -12.0161 C   0  0  0  0  0  0  0  0  0  0  0  0
   -6.5100   11.8065  -10.7374 C   0  0  0  0  0  0  0  0  0  0  0  0
   -7.7222   10.5841  -13.0265 C   0  0  0  0  0  0  0  0  0  0  0  0
   -6.9887   11.7756  -13.1353 C   0  0  0  0  0  0  0  0  0  0  0  0
   -7.8163   10.0177  -11.7563 C   0  0  0  0  0  0  0  0  0  0  0  0
   -7.2425   10.6185  -10.6022 C   0  0  0  0  0  0  0  0  0  0  0  0
   -7.6172    9.7487   -9.5090 C   0  0  0  0  0  0  0  0  0  0  0  0
   -8.2846    8.7289   -9.9848 N   0  0  0  0  0  0  0  0  0  0  0  0
   -8.4176    8.8659  -11.2967 N   0  0  0  0  0  0  0  0  0  0  0  0
   -7.3368    9.8884   -8.0257 C   0  0  0  0  0  0  0  0  0  0  0  0
   -4.4023   13.6480  -11.4578 N   0  0  0  0  0  0  0  0  0  0  0  0
   -3.4623   14.7747  -11.4948 C   0  0  0  0  0  0  0  0  0  0  0  0
   -5.5331   13.6158  -12.1961 C   0  0  0  0  0  0  0  0  0  0  0  0
   -5.8776   14.5022  -12.9731 O   0  0  0  0  0  0  0  0  0  0  0  0
   -5.9585   10.4860   -7.7354 C   0  0  0  0  0  0  0  0  0  0  0  0
   -5.8494   11.7555   -7.1596 C   0  0  0  0  0  0  0  0  0  0  0  0
   -4.5968   12.3068   -6.9148 C   0  0  0  0  0  0  0  0  0  0  0  0
   -3.4468   11.5860   -7.2370 C   0  0  0  0  0  0  0  0  0  0  0  0
   -3.5513   10.3089   -7.8057 C   0  0  0  0  0  0  0  0  0  0  0  0
   -4.8090    9.7654   -8.0523 C   0  0  0  0  0  0  0  0  0  0  0  0
   -2.0901   12.1669   -6.9801 C   0  0  0  0  0  0  0  0  0  0  0  0
   -1.7479   13.4121   -6.4872 C   0  0  0  0  0  0  0  0  0  0  0  0
   -0.3990   13.4663   -6.4328 N   0  0  3  0  0  0  0  0  0  0  0  0
    0.1869   12.3691   -6.8386 N   0  0  0  0  0  0  0  0  0  0  0  0
   -0.8034   11.5628   -7.1902 C   0  0  0  0  0  0  0  0  0  0  0  0
    0.4389   14.5894   -5.9640 C   0  0  0  0  0  0  0  0  0  0  0  0
    1.5042   14.2139   -4.8744 C   0  0  0  0  0  0  0  0  0  0  0  0
    2.6302   13.6295   -5.4977 O   0  0  0  0  0  0  0  0  0  0  0  0
    0.9501   13.1612   -3.9053 C   0  0  0  0  0  0  0  0  0  0  0  0
    2.0179   15.4484   -4.1037 C   0  0  0  0  0  0  0  0  0  0  0  0
   -5.4969   11.6111  -10.3560 H   0  0  0  0  0  0  0  0  0  0  0  0
   -6.9986   12.5652  -10.1084 H   0  0  0  0  0  0  0  0  0  0  0  0
   -8.1913   10.1279  -13.8857 H   0  0  0  0  0  0  0  0  0  0  0  0
   -6.8965   12.2561  -14.0981 H   0  0  0  0  0  0  0  0  0  0  0  0
   -8.0357    9.5970   -7.2556 H   0  0  0  0  0  0  0  0  0  0  0  0
   -4.1971   12.8720  -10.8613 H   0  0  0  0  0  0  0  0  0  0  0  0
   -2.6221   14.5745  -10.8136 H   0  0  0  0  0  0  0  0  0  0  0  0
   -3.0817   14.9010  -12.5191 H   0  0  0  0  0  0  0  0  0  0  0  0
   -3.9787   15.6934  -11.1797 H   0  0  0  0  0  0  0  0  0  0  0  0
   -6.7407   12.3094   -6.9043 H   0  0  0  0  0  0  0  0  0  0  0  0
   -4.5143   13.2904   -6.4764 H   0  0  0  0  0  0  0  0  0  0  0  0
   -2.6607    9.7496   -8.0512 H   0  0  0  0  0  0  0  0  0  0  0  0
   -4.8939    8.7820   -8.4907 H   0  0  0  0  0  0  0  0  0  0  0  0
   -2.1296   14.1989   -7.1545 H   0  0  0  0  0  0  0  0  0  0  0  0
   -2.1709   13.5478   -5.4809 H   0  0  0  0  0  0  0  0  0  0  0  0
   -0.6606   10.5688   -7.5878 H   0  0  0  0  0  0  0  0  0  0  0  0
    0.9713   15.0036   -6.8329 H   0  0  0  0  0  0  0  0  0  0  0  0
   -0.2256   15.3572   -5.5409 H   0  0  0  0  0  0  0  0  0  0  0  0
    3.2752   13.4021   -4.8384 H   0  0  0  0  0  0  0  0  0  0  0  0
    1.7145   12.9160   -3.1533 H   0  0  0  0  0  0  0  0  0  0  0  0
    0.0563   13.5598   -3.4030 H   0  0  0  0  0  0  0  0  0  0  0  0
    0.6818   12.2530   -4.4649 H   0  0  0  0  0  0  0  0  0  0  0  0
    2.7591   15.1317   -3.3552 H   0  0  0  0  0  0  0  0  0  0  0  0
    2.4859   16.1517   -4.8082 H   0  0  0  0  0  0  0  0  0  0  0  0
    1.1747   15.9421   -3.5985 H   0  0  0  0  0  0  0  0  0  0  0  0
  1  2  1  0  0  0  0
  1  4  2  0  0  0  0
  1 13  1  0  0  0  0
  2  6  1  0  0  0  0
  3  4  1  0  0  0  0
  3  5  2  0  0  0  0
  5  6  1  0  0  0  0
  5  9  1  0  0  0  0
  6  7  2  0  0  0  0
  7  8  1  0  0  0  0
  7 10  1  0  0  0  0
  8  9  2  0  0  0  0
 10 15  2  0  0  0  0
 11 12  1  0  0  0  0
 11 13  1  0  0  0  0
 13 14  2  0  0  0  0
 15 16  1  0  0  0  0
 15 20  1  0  0  0  0
 16 17  2  0  0  0  0
 17 18  1  0  0  0  0
 18 19  1  0  0  0  0
 18 21  2  0  0  0  0
 19 20  2  0  0  0  0
 21 22  1  0  0  0  0
 21 25  1  0  0  0  0
 22 23  1  0  0  0  0
 23 24  1  0  0  0  0
 23 26  1  0  0  0  0
 24 25  2  0  0  0  0
 26 27  1  0  0  0  0
 27 28  1  0  0  0  0
 27 29  1  0  0  0  0
 27 30  1  0  0  0  0
  2 31  1  0  0  0  0
  2 32  1  0  0  0  0
  3 33  1  0  0  0  0
  4 34  1  0  0  0  0
 10 35  1  0  0  0  0
 11 36  1  0  0  0  0
 12 37  1  0  0  0  0
 12 38  1  0  0  0  0
 12 39  1  0  0  0  0
 16 40  1  0  0  0  0
 17 41  1  0  0  0  0
 19 42  1  0  0  0  0
 20 43  1  0  0  0  0
 22 44  1  0  0  0  0
 22 45  1  0  0  0  0
 25 46  1  0  0  0  0
 26 47  1  0  0  0  0
 26 48  1  0  0  0  0
 28 49  1  0  0  0  0
 29 50  1  0  0  0  0
 29 51  1  0  0  0  0
 29 52  1  0  0  0  0
 30 53  1  0  0  0  0
 30 54  1  0  0  0  0
 30 55  1  0  0  0  0
M  END
> <Name>
20

> <IC50[uM]>
0.016

$$$$
20
  -OEChem-05192314333D
 Structure written by MMmdl.
 55 58  0     1  0  0  0  0  0999 V2000
   -6.3740   12.3524  -12.0161 C   0  0  0  0  0  0  0  0  0  0  0  0
   -6.5100   11.8065  -10.7374 C   0  0  0  0  0  0  0  0  0  0  0  0
   -7.7222   10.5841  -13.0265 C   0  0  0  0  0  0  0  0  0  0  0  0
   -6.9887   11.7756  -13.1353 C   0  0  0  0  0  0  0  0  0  0  0  0
   -7.8163   10.0177  -11.7563 C   0  0  3  0  0  0  0  0  0  0  0  0
   -7.2425   10.6185  -10.6022 C   0  0  0  0  0  0  0  0  0  0  0  0
   -7.6172    9.7487   -9.5090 C   0  0  0  0  0  0  0  0  0  0  0  0
   -8.2846    8.7289   -9.9848 N   0  0  0  0  0  0  0  0  0  0  0  0
   -8.4176    8.8659  -11.2967 N   0  0  0  0  0  0  0  0  0  0  0  0
   -7.3368    9.8884   -8.0257 C   0  0  0  0  0  0  0  0  0  0  0  0
   -4.4023   13.6480  -11.4578 N   0  0  0  0  0  0  0  0  0  0  0  0
   -3.4623   14.7747  -11.4948 C   0  0  0  0  0  0  0  0  0  0  0  0
   -5.5331   13.6158  -12.1961 C   0  0  0  0  0  0  0  0  0  0  0  0
   -5.8776   14.5022  -12.9731 O   0  0  0  0  0  0  0  0  0  0  0  0
   -5.9585   10.4860   -7.7354 C   0  0  0  0  0  0  0  0  0  0  0  0
   -5.8494   11.7555   -7.1596 C   0  0  0  0  0  0  0  0  0  0  0  0
   -4.5968   12.3068   -6.9148 C   0  0  0  0  0  0  0  0  0  0  0  0
   -3.4468   11.5860   -7.2370 C   0  0  0  0  0  0  0  0  0  0  0  0
   -3.5513   10.3089   -7.8057 C   0  0  0  0  0  0  0  0  0  0  0  0
   -4.8090    9.7654   -8.0523 C   0  0  0  0  0  0  0  0  0  0  0  0
   -2.0901   12.1669   -6.9801 C   0  0  0  0  0  0  0  0  0  0  0  0
   -1.7479   13.4121   -6.4872 C   0  0  0  0  0  0  0  0  0  0  0  0
   -0.3990   13.4663   -6.4328 N   0  0  3  0  0  0  0  0  0  0  0  0
    0.1869   12.3691   -6.8386 N   0  0  0  0  0  0  0  0  0  0  0  0
   -0.8034   11.5628   -7.1902 C   0  0  0  0  0  0  0  0  0  0  0  0
    0.4389   14.5894   -5.9640 C   0  0  0  0  0  0  0  0  0  0  0  0
    1.5042   14.2139   -4.8744 C   0  0  0  0  0  0  0  0  0  0  0  0
    2.6302   13.6295   -5.4977 O   0  0  0  0  0  0  0  0  0  0  0  0
    0.9501   13.1612   -3.9053 C   0  0  0  0  0  0  0  0  0  0  0  0
    2.0179   15.4484   -4.1037 C   0  0  0  0  0  0  0  0  0  0  0  0
   -6.0641   12.2854   -9.8782 H   0  0  0  0  0  0  0  0  0  0  0  0
   -8.1913   10.1279  -13.8857 H   0  0  0  0  0  0  0  0  0  0  0  0
   -6.8965   12.2561  -14.0981 H   0  0  0  0  0  0  0  0  0  0  0  0
   -6.8834    9.4622  -11.9330 H   0  0  0  0  0  0  0  0  0  0  0  0
   -8.0357    9.5970   -7.2556 H   0  0  0  0  0  0  0  0  0  0  0  0
   -2.6221   14.5745  -10.8136 H   0  0  0  0  0  0  0  0  0  0  0  0
   -3.0817   14.9010  -12.5191 H   0  0  0  0  0  0  0  0  0  0  0  0
   -3.9787   15.6934  -11.1797 H   0  0  0  0  0  0  0  0  0  0  0  0
   -5.2393   15.2056  -12.9549 H   0  0  0  0  0  0  0  0  0  0  0  0
   -6.7407   12.3094   -6.9043 H   0  0  0  0  0  0  0  0  0  0  0  0
   -4.5143   13.2904   -6.4764 H   0  0  0  0  0  0  0  0  0  0  0  0
   -2.6607    9.7496   -8.0512 H   0  0  0  0  0  0  0  0  0  0  0  0
   -4.8939    8.7820   -8.4907 H   0  0  0  0  0  0  0  0  0  0  0  0
   -2.1296   14.1989   -7.1545 H   0  0  0  0  0  0  0  0  0  0  0  0
   -2.1709   13.5478   -5.4809 H   0  0  0  0  0  0  0  0  0  0  0  0
   -0.6606   10.5688   -7.5878 H   0  0  0  0  0  0  0  0  0  0  0  0
    0.9713   15.0036   -6.8329 H   0  0  0  0  0  0  0  0  0  0  0  0
   -0.2256   15.3572   -5.5409 H   0  0  0  0  0  0  0  0  0  0  0  0
    3.2752   13.4021   -4.8384 H   0  0  0  0  0  0  0  0  0  0  0  0
    1.7145   12.9160   -3.1533 H   0  0  0  0  0  0  0  0  0  0  0  0
    0.0563   13.5598   -3.4030 H   0  0  0  0  0  0  0  0  0  0  0  0
    0.6818   12.2530   -4.4649 H   0  0  0  0  0  0  0  0  0  0  0  0
    2.7591   15.1317   -3.3552 H   0  0  0  0  0  0  0  0  0  0  0  0
    2.4859   16.1517   -4.8082 H   0  0  0  0  0  0  0  0  0  0  0  0
    1.1747   15.9421   -3.5985 H   0  0  0  0  0  0  0  0  0  0  0  0
  1  2  2  0  0  0  0
  1  4  1  0  0  0  0
  1 13  1  0  0  0  0
  2  6  1  0  0  0  0
  3  4  2  0  0  0  0
  3  5  1  0  0  0  0
  5  6  1  0  0  0  0
  5  9  1  0  0  0  0
  6  7  2  0  0  0  0
  7  8  1  0  0  0  0
  7 10  1  0  0  0  0
  8  9  2  0  0  0  0
 10 15  2  0  0  0  0
 11 12  1  0  0  0  0
 11 13  2  0  0  0  0
 13 14  1  0  0  0  0
 15 16  1  0  0  0  0
 15 20  1  0  0  0  0
 16 17  2  0  0  0  0
 17 18  1  0  0  0  0
 18 19  1  0  0  0  0
 18 21  2  0  0  0  0
 19 20  2  0  0  0  0
 21 22  1  0  0  0  0
 21 25  1  0  0  0  0
 22 23  1  0  0  0  0
 23 24  1  0  0  0  0
 23 26  1  0  0  0  0
 24 25  2  0  0  0  0
 26 27  1  0  0  0  0
 27 28  1  0  0  0  0
 27 29  1  0  0  0  0
 27 30  1  0  0  0  0
  2 31  1  0  0  0  0
  3 32  1  0  0  0  0
  4 33  1  0  0  0  0
  5 34  1  0  0  0  0
 10 35  1  0  0  0  0
 12 36  1  0  0  0  0
 12 37  1  0  0  0  0
 12 38  1  0  0  0  0
 14 39  1  0  0  0  0
 16 40  1  0  0  0  0
 17 41  1  0  0  0  0
 19 42  1  0  0  0  0
 20 43  1  0  0  0  0
 22 44  1  0  0  0  0
 22 45  1  0  0  0  0
 25 46  1  0  0  0  0
 26 47  1  0  0  0  0
 26 48  1  0  0  0  0
 28 49  1  0  0  0  0
 29 50  1  0  0  0  0
 29 51  1  0  0  0  0
 29 52  1  0  0  0  0
 30 53  1  0  0  0  0
 30 54  1  0  0  0  0
 30 55  1  0  0  0  0
M  END
> <Name>
20

> <IC50[uM]>
0.016

$$$$
20
  -OEChem-05192314333D
 Structure written by MMmdl.
 55 58  0     1  0  0  0  0  0999 V2000
   -6.3740   12.3524  -12.0161 C   0  0  0  0  0  0  0  0  0  0  0  0
   -6.5100   11.8065  -10.7374 C   0  0  0  0  0  0  0  0  0  0  0  0
   -7.7222   10.5841  -13.0265 C   0  0  0  0  0  0  0  0  0  0  0  0
   -6.9887   11.7756  -13.1353 C   0  0  0  0  0  0  0  0  0  0  0  0
   -7.8163   10.0177  -11.7563 C   0  0  0  0  0  0  0  0  0  0  0  0
   -7.2425   10.6185  -10.6022 C   0  0  0  0  0  0  0  0  0  0  0  0
   -7.6172    9.7487   -9.5090 C   0  0  0  0  0  0  0  0  0  0  0  0
   -8.2846    8.7289   -9.9848 N   0  0  0  0  0  0  0  0  0  0  0  0
   -8.4176    8.8659  -11.2967 N   0  0  0  0  0  0  0  0  0  0  0  0
   -7.3368    9.8884   -8.0257 C   0  0  0  0  0  0  0  0  0  0  0  0
   -4.4023   13.6480  -11.4578 N   0  0  0  0  0  0  0  0  0  0  0  0
   -3.4623   14.7747  -11.4948 C   0  0  0  0  0  0  0  0  0  0  0  0
   -5.5331   13.6158  -12.1961 C   0  0  0  0  0  0  0  0  0  0  0  0
   -5.8776   14.5022  -12.9731 O   0  0  0  0  0  0  0  0  0  0  0  0
   -5.9585   10.4860   -7.7354 C   0  0  0  0  0  0  0  0  0  0  0  0
   -5.8494   11.7555   -7.1596 C   0  0  0  0  0  0  0  0  0  0  0  0
   -4.5968   12.3068   -6.9148 C   0  0  0  0  0  0  0  0  0  0  0  0
   -3.4468   11.5860   -7.2370 C   0  0  0  0  0  0  0  0  0  0  0  0
   -3.5513   10.3089   -7.8057 C   0  0  0  0  0  0  0  0  0  0  0  0
   -4.8090    9.7654   -8.0523 C   0  0  0  0  0  0  0  0  0  0  0  0
   -2.0901   12.1669   -6.9801 C   0  0  0  0  0  0  0  0  0  0  0  0
   -1.7479   13.4121   -6.4872 C   0  0  0  0  0  0  0  0  0  0  0  0
   -0.3990   13.4663   -6.4328 N   0  0  3  0  0  0  0  0  0  0  0  0
    0.1869   12.3691   -6.8386 N   0  0  0  0  0  0  0  0  0  0  0  0
   -0.8034   11.5628   -7.1902 C   0  0  0  0  0  0  0  0  0  0  0  0
    0.4389   14.5894   -5.9640 C   0  0  0  0  0  0  0  0  0  0  0  0
    1.5042   14.2139   -4.8744 C   0  0  0  0  0  0  0  0  0  0  0  0
    2.6302   13.6295   -5.4977 O   0  0  0  0  0  0  0  0  0  0  0  0
    0.9501   13.1612   -3.9053 C   0  0  0  0  0  0  0  0  0  0  0  0
    2.0179   15.4484   -4.1037 C   0  0  0  0  0  0  0  0  0  0  0  0
   -6.0641   12.2854   -9.8782 H   0  0  0  0  0  0  0  0  0  0  0  0
   -8.1913   10.1279  -13.8857 H   0  0  0  0  0  0  0  0  0  0  0  0
   -7.6795   12.5319  -13.5364 H   0  0  0  0  0  0  0  0  0  0  0  0
   -6.1895   11.5845  -13.8665 H   0  0  0  0  0  0  0  0  0  0  0  0
   -8.0357    9.5970   -7.2556 H   0  0  0  0  0  0  0  0  0  0  0  0
   -2.6221   14.5745  -10.8136 H   0  0  0  0  0  0  0  0  0  0  0  0
   -3.0817   14.9010  -12.5191 H   0  0  0  0  0  0  0  0  0  0  0  0
   -3.9787   15.6934  -11.1797 H   0  0  0  0  0  0  0  0  0  0  0  0
   -5.2393   15.2056  -12.9549 H   0  0  0  0  0  0  0  0  0  0  0  0
   -6.7407   12.3094   -6.9043 H   0  0  0  0  0  0  0  0  0  0  0  0
   -4.5143   13.2904   -6.4764 H   0  0  0  0  0  0  0  0  0  0  0  0
   -2.6607    9.7496   -8.0512 H   0  0  0  0  0  0  0  0  0  0  0  0
   -4.8939    8.7820   -8.4907 H   0  0  0  0  0  0  0  0  0  0  0  0
   -2.1296   14.1989   -7.1545 H   0  0  0  0  0  0  0  0  0  0  0  0
   -2.1709   13.5478   -5.4809 H   0  0  0  0  0  0  0  0  0  0  0  0
   -0.6606   10.5688   -7.5878 H   0  0  0  0  0  0  0  0  0  0  0  0
    0.9713   15.0036   -6.8329 H   0  0  0  0  0  0  0  0  0  0  0  0
   -0.2256   15.3572   -5.5409 H   0  0  0  0  0  0  0  0  0  0  0  0
    3.2752   13.4021   -4.8384 H   0  0  0  0  0  0  0  0  0  0  0  0
    1.7145   12.9160   -3.1533 H   0  0  0  0  0  0  0  0  0  0  0  0
    0.0563   13.5598   -3.4030 H   0  0  0  0  0  0  0  0  0  0  0  0
    0.6818   12.2530   -4.4649 H   0  0  0  0  0  0  0  0  0  0  0  0
    2.7591   15.1317   -3.3552 H   0  0  0  0  0  0  0  0  0  0  0  0
    2.4859   16.1517   -4.8082 H   0  0  0  0  0  0  0  0  0  0  0  0
    1.1747   15.9421   -3.5985 H   0  0  0  0  0  0  0  0  0  0  0  0
  1  2  2  0  0  0  0
  1  4  1  0  0  0  0
  1 13  1  0  0  0  0
  2  6  1  0  0  0  0
  3  4  1  0  0  0  0
  3  5  2  0  0  0  0
  5  6  1  0  0  0  0
  5  9  1  0  0  0  0
  6  7  2  0  0  0  0
  7  8  1  0  0  0  0
  7 10  1  0  0  0  0
  8  9  2  0  0  0  0
 10 15  2  0  0  0  0
 11 12  1  0  0  0  0
 11 13  2  0  0  0  0
 13 14  1  0  0  0  0
 15 16  1  0  0  0  0
 15 20  1  0  0  0  0
 16 17  2  0  0  0  0
 17 18  1  0  0  0  0
 18 19  1  0  0  0  0
 18 21  2  0  0  0  0
 19 20  2  0  0  0  0
 21 22  1  0  0  0  0
 21 25  1  0  0  0  0
 22 23  1  0  0  0  0
 23 24  1  0  0  0  0
 23 26  1  0  0  0  0
 24 25  2  0  0  0  0
 26 27  1  0  0  0  0
 27 28  1  0  0  0  0
 27 29  1  0  0  0  0
 27 30  1  0  0  0  0
  2 31  1  0  0  0  0
  3 32  1  0  0  0  0
  4 33  1  0  0  0  0
  4 34  1  0  0  0  0
 10 35  1  0  0  0  0
 12 36  1  0  0  0  0
 12 37  1  0  0  0  0
 12 38  1  0  0  0  0
 14 39  1  0  0  0  0
 16 40  1  0  0  0  0
 17 41  1  0  0  0  0
 19 42  1  0  0  0  0
 20 43  1  0  0  0  0
 22 44  1  0  0  0  0
 22 45  1  0  0  0  0
 25 46  1  0  0  0  0
 26 47  1  0  0  0  0
 26 48  1  0  0  0  0
 28 49  1  0  0  0  0
 29 50  1  0  0  0  0
 29 51  1  0  0  0  0
 29 52  1  0  0  0  0
 30 53  1  0  0  0  0
 30 54  1  0  0  0  0
 30 55  1  0  0  0  0
M  END
> <Name>
20

> <IC50[uM]>
0.016

$$$$
20
  -OEChem-05192314333D
 Structure written by MMmdl.
 55 58  0     1  0  0  0  0  0999 V2000
   -6.3740   12.3524  -12.0161 C   0  0  0  0  0  0  0  0  0  0  0  0
   -6.5100   11.8065  -10.7374 C   0  0  0  0  0  0  0  0  0  0  0  0
   -7.7222   10.5841  -13.0265 C   0  0  0  0  0  0  0  0  0  0  0  0
   -6.9887   11.7756  -13.1353 C   0  0  0  0  0  0  0  0  0  0  0  0
   -7.8163   10.0177  -11.7563 C   0  0  0  0  0  0  0  0  0  0  0  0
   -7.2425   10.6185  -10.6022 C   0  0  0  0  0  0  0  0  0  0  0  0
   -7.6172    9.7487   -9.5090 C   0  0  0  0  0  0  0  0  0  0  0  0
   -8.2846    8.7289   -9.9848 N   0  0  0  0  0  0  0  0  0  0  0  0
   -8.4176    8.8659  -11.2967 N   0  0  0  0  0  0  0  0  0  0  0  0
   -7.3368    9.8884   -8.0257 C   0  0  0  0  0  0  0  0  0  0  0  0
   -4.4023   13.6480  -11.4578 N   0  0  0  0  0  0  0  0  0  0  0  0
   -3.4623   14.7747  -11.4948 C   0  0  0  0  0  0  0  0  0  0  0  0
   -5.5331   13.6158  -12.1961 C   0  0  0  0  0  0  0  0  0  0  0  0
   -5.8776   14.5022  -12.9731 O   0  0  0  0  0  0  0  0  0  0  0  0
   -5.9585   10.4860   -7.7354 C   0  0  0  0  0  0  0  0  0  0  0  0
   -5.8494   11.7555   -7.1596 C   0  0  0  0  0  0  0  0  0  0  0  0
   -4.5968   12.3068   -6.9148 C   0  0  0  0  0  0  0  0  0  0  0  0
   -3.4468   11.5860   -7.2370 C   0  0  0  0  0  0  0  0  0  0  0  0
   -3.5513   10.3089   -7.8057 C   0  0  0  0  0  0  0  0  0  0  0  0
   -4.8090    9.7654   -8.0523 C   0  0  0  0  0  0  0  0  0  0  0  0
   -2.0901   12.1669   -6.9801 C   0  0  0  0  0  0  0  0  0  0  0  0
   -1.7479   13.4121   -6.4872 C   0  0  0  0  0  0  0  0  0  0  0  0
   -0.3990   13.4663   -6.4328 N   0  0  3  0  0  0  0  0  0  0  0  0
    0.1869   12.3691   -6.8386 N   0  0  0  0  0  0  0  0  0  0  0  0
   -0.8034   11.5628   -7.1902 C   0  0  0  0  0  0  0  0  0  0  0  0
    0.4389   14.5894   -5.9640 C   0  0  0  0  0  0  0  0  0  0  0  0
    1.5042   14.2139   -4.8744 C   0  0  0  0  0  0  0  0  0  0  0  0
    2.6302   13.6295   -5.4977 O   0  0  0  0  0  0  0  0  0  0  0  0
    0.9501   13.1612   -3.9053 C   0  0  0  0  0  0  0  0  0  0  0  0
    2.0179   15.4484   -4.1037 C   0  0  0  0  0  0  0  0  0  0  0  0
   -5.4969   11.6111  -10.3560 H   0  0  0  0  0  0  0  0  0  0  0  0
   -6.9986   12.5652  -10.1084 H   0  0  0  0  0  0  0  0  0  0  0  0
   -8.1913   10.1279  -13.8857 H   0  0  0  0  0  0  0  0  0  0  0  0
   -6.8965   12.2561  -14.0981 H   0  0  0  0  0  0  0  0  0  0  0  0
   -8.0357    9.5970   -7.2556 H   0  0  0  0  0  0  0  0  0  0  0  0
   -2.6221   14.5745  -10.8136 H   0  0  0  0  0  0  0  0  0  0  0  0
   -3.0817   14.9010  -12.5191 H   0  0  0  0  0  0  0  0  0  0  0  0
   -3.9787   15.6934  -11.1797 H   0  0  0  0  0  0  0  0  0  0  0  0
   -5.2393   15.2056  -12.9549 H   0  0  0  0  0  0  0  0  0  0  0  0
   -6.7407   12.3094   -6.9043 H   0  0  0  0  0  0  0  0  0  0  0  0
   -4.5143   13.2904   -6.4764 H   0  0  0  0  0  0  0  0  0  0  0  0
   -2.6607    9.7496   -8.0512 H   0  0  0  0  0  0  0  0  0  0  0  0
   -4.8939    8.7820   -8.4907 H   0  0  0  0  0  0  0  0  0  0  0  0
   -2.1296   14.1989   -7.1545 H   0  0  0  0  0  0  0  0  0  0  0  0
   -2.1709   13.5478   -5.4809 H   0  0  0  0  0  0  0  0  0  0  0  0
   -0.6606   10.5688   -7.5878 H   0  0  0  0  0  0  0  0  0  0  0  0
    0.9713   15.0036   -6.8329 H   0  0  0  0  0  0  0  0  0  0  0  0
   -0.2256   15.3572   -5.5409 H   0  0  0  0  0  0  0  0  0  0  0  0
    3.2752   13.4021   -4.8384 H   0  0  0  0  0  0  0  0  0  0  0  0
    1.7145   12.9160   -3.1533 H   0  0  0  0  0  0  0  0  0  0  0  0
    0.0563   13.5598   -3.4030 H   0  0  0  0  0  0  0  0  0  0  0  0
    0.6818   12.2530   -4.4649 H   0  0  0  0  0  0  0  0  0  0  0  0
    2.7591   15.1317   -3.3552 H   0  0  0  0  0  0  0  0  0  0  0  0
    2.4859   16.1517   -4.8082 H   0  0  0  0  0  0  0  0  0  0  0  0
    1.1747   15.9421   -3.5985 H   0  0  0  0  0  0  0  0  0  0  0  0
  1  2  1  0  0  0  0
  1  4  2  0  0  0  0
  1 13  1  0  0  0  0
  2  6  1  0  0  0  0
  3  4  1  0  0  0  0
  3  5  2  0  0  0  0
  5  6  1  0  0  0  0
  5  9  1  0  0  0  0
  6  7  2  0  0  0  0
  7  8  1  0  0  0  0
  7 10  1  0  0  0  0
  8  9  2  0  0  0  0
 10 15  2  0  0  0  0
 11 12  1  0  0  0  0
 11 13  2  0  0  0  0
 13 14  1  0  0  0  0
 15 16  1  0  0  0  0
 15 20  1  0  0  0  0
 16 17  2  0  0  0  0
 17 18  1  0  0  0  0
 18 19  1  0  0  0  0
 18 21  2  0  0  0  0
 19 20  2  0  0  0  0
 21 22  1  0  0  0  0
 21 25  1  0  0  0  0
 22 23  1  0  0  0  0
 23 24  1  0  0  0  0
 23 26  1  0  0  0  0
 24 25  2  0  0  0  0
 26 27  1  0  0  0  0
 27 28  1  0  0  0  0
 27 29  1  0  0  0  0
 27 30  1  0  0  0  0
  2 31  1  0  0  0  0
  2 32  1  0  0  0  0
  3 33  1  0  0  0  0
  4 34  1  0  0  0  0
 10 35  1  0  0  0  0
 12 36  1  0  0  0  0
 12 37  1  0  0  0  0
 12 38  1  0  0  0  0
 14 39  1  0  0  0  0
 16 40  1  0  0  0  0
 17 41  1  0  0  0  0
 19 42  1  0  0  0  0
 20 43  1  0  0  0  0
 22 44  1  0  0  0  0
 22 45  1  0  0  0  0
 25 46  1  0  0  0  0
 26 47  1  0  0  0  0
 26 48  1  0  0  0  0
 28 49  1  0  0  0  0
 29 50  1  0  0  0  0
 29 51  1  0  0  0  0
 29 52  1  0  0  0  0
 30 53  1  0  0  0  0
 30 54  1  0  0  0  0
 30 55  1  0  0  0  0
M  END
> <Name>
20

> <IC50[uM]>
0.016

$$$$
20
  -OEChem-05192314333D
 Structure written by MMmdl.
 55 58  0     1  0  0  0  0  0999 V2000
   -6.3740   12.3524  -12.0161 C   0  0  3  0  0  0  0  0  0  0  0  0
   -6.5100   11.8065  -10.7374 C   0  0  0  0  0  0  0  0  0  0  0  0
   -7.7222   10.5841  -13.0265 C   0  0  0  0  0  0  0  0  0  0  0  0
   -6.9887   11.7756  -13.1353 C   0  0  0  0  0  0  0  0  0  0  0  0
   -7.8163   10.0177  -11.7563 C   0  0  0  0  0  0  0  0  0  0  0  0
   -7.2425   10.6185  -10.6022 C   0  0  0  0  0  0  0  0  0  0  0  0
   -7.6172    9.7487   -9.5090 C   0  0  0  0  0  0  0  0  0  0  0  0
   -8.2846    8.7289   -9.9848 N   0  0  0  0  0  0  0  0  0  0  0  0
   -8.4176    8.8659  -11.2967 N   0  0  0  0  0  0  0  0  0  0  0  0
   -7.3368    9.8884   -8.0257 C   0  0  0  0  0  0  0  0  0  0  0  0
   -4.4023   13.6480  -11.4578 N   0  0  0  0  0  0  0  0  0  0  0  0
   -3.4623   14.7747  -11.4948 C   0  0  0  0  0  0  0  0  0  0  0  0
   -5.5331   13.6158  -12.1961 C   0  0  0  0  0  0  0  0  0  0  0  0
   -5.8776   14.5022  -12.9731 O   0  0  0  0  0  0  0  0  0  0  0  0
   -5.9585   10.4860   -7.7354 C   0  0  0  0  0  0  0  0  0  0  0  0
   -5.8494   11.7555   -7.1596 C   0  0  0  0  0  0  0  0  0  0  0  0
   -4.5968   12.3068   -6.9148 C   0  0  0  0  0  0  0  0  0  0  0  0
   -3.4468   11.5860   -7.2370 C   0  0  0  0  0  0  0  0  0  0  0  0
   -3.5513   10.3089   -7.8057 C   0  0  0  0  0  0  0  0  0  0  0  0
   -4.8090    9.7654   -8.0523 C   0  0  0  0  0  0  0  0  0  0  0  0
   -2.0901   12.1669   -6.9801 C   0  0  0  0  0  0  0  0  0  0  0  0
   -1.7479   13.4121   -6.4872 C   0  0  0  0  0  0  0  0  0  0  0  0
   -0.3990   13.4663   -6.4328 N   0  0  0  0  0  0  0  0  0  0  0  0
    0.1869   12.3691   -6.8386 N   0  0  0  0  0  0  0  0  0  0  0  0
   -0.8034   11.5628   -7.1902 C   0  0  0  0  0  0  0  0  0  0  0  0
    0.4389   14.5894   -5.9640 C   0  0  0  0  0  0  0  0  0  0  0  0
    1.5042   14.2139   -4.8744 C   0  0  0  0  0  0  0  0  0  0  0  0
    2.6302   13.6295   -5.4977 O   0  0  0  0  0  0  0  0  0  0  0  0
    0.9501   13.1612   -3.9053 C   0  0  0  0  0  0  0  0  0  0  0  0
    2.0179   15.4484   -4.1037 C   0  0  0  0  0  0  0  0  0  0  0  0
   -5.4811   11.7330  -12.1864 H   0  0  0  0  0  0  0  0  0  0  0  0
   -6.0641   12.2854   -9.8782 H   0  0  0  0  0  0  0  0  0  0  0  0
   -8.1913   10.1279  -13.8857 H   0  0  0  0  0  0  0  0  0  0  0  0
   -6.8965   12.2561  -14.0981 H   0  0  0  0  0  0  0  0  0  0  0  0
   -8.0357    9.5970   -7.2556 H   0  0  0  0  0  0  0  0  0  0  0  0
   -4.1971   12.8720  -10.8613 H   0  0  0  0  0  0  0  0  0  0  0  0
   -2.6221   14.5745  -10.8136 H   0  0  0  0  0  0  0  0  0  0  0  0
   -3.0817   14.9010  -12.5191 H   0  0  0  0  0  0  0  0  0  0  0  0
   -3.9787   15.6934  -11.1797 H   0  0  0  0  0  0  0  0  0  0  0  0
   -6.7407   12.3094   -6.9043 H   0  0  0  0  0  0  0  0  0  0  0  0
   -4.5143   13.2904   -6.4764 H   0  0  0  0  0  0  0  0  0  0  0  0
   -3.4456   11.1385   -6.2321 H   0  0  0  0  0  0  0  0  0  0  0  0
   -2.6607    9.7496   -8.0512 H   0  0  0  0  0  0  0  0  0  0  0  0
   -4.8939    8.7820   -8.4907 H   0  0  0  0  0  0  0  0  0  0  0  0
   -2.4321   14.1965   -6.1989 H   0  0  0  0  0  0  0  0  0  0  0  0
   -0.6606   10.5688   -7.5878 H   0  0  0  0  0  0  0  0  0  0  0  0
    0.9713   15.0036   -6.8329 H   0  0  0  0  0  0  0  0  0  0  0  0
   -0.2256   15.3572   -5.5409 H   0  0  0  0  0  0  0  0  0  0  0  0
    3.2752   13.4021   -4.8384 H   0  0  0  0  0  0  0  0  0  0  0  0
    1.7145   12.9160   -3.1533 H   0  0  0  0  0  0  0  0  0  0  0  0
    0.0563   13.5598   -3.4030 H   0  0  0  0  0  0  0  0  0  0  0  0
    0.6818   12.2530   -4.4649 H   0  0  0  0  0  0  0  0  0  0  0  0
    2.7591   15.1317   -3.3552 H   0  0  0  0  0  0  0  0  0  0  0  0
    2.4859   16.1517   -4.8082 H   0  0  0  0  0  0  0  0  0  0  0  0
    1.1747   15.9421   -3.5985 H   0  0  0  0  0  0  0  0  0  0  0  0
  1  2  1  0  0  0  0
  1  4  1  0  0  0  0
  1 13  1  0  0  0  0
  2  6  2  0  0  0  0
  3  4  2  0  0  0  0
  3  5  1  0  0  0  0
  5  6  1  0  0  0  0
  5  9  2  0  0  0  0
  6  7  1  0  0  0  0
  7  8  2  0  0  0  0
  7 10  1  0  0  0  0
  8  9  1  0  0  0  0
 10 15  2  0  0  0  0
 11 12  1  0  0  0  0
 11 13  1  0  0  0  0
 13 14  2  0  0  0  0
 15 16  1  0  0  0  0
 15 20  1  0  0  0  0
 16 17  2  0  0  0  0
 17 18  1  0  0  0  0
 18 19  1  0  0  0  0
 18 21  1  0  0  0  0
 19 20  2  0  0  0  0
 21 22  2  0  0  0  0
 21 25  1  0  0  0  0
 22 23  1  0  0  0  0
 23 24  1  0  0  0  0
 23 26  1  0  0  0  0
 24 25  2  0  0  0  0
 26 27  1  0  0  0  0
 27 28  1  0  0  0  0
 27 29  1  0  0  0  0
 27 30  1  0  0  0  0
  1 31  1  0  0  0  0
  2 32  1  0  0  0  0
  3 33  1  0  0  0  0
  4 34  1  0  0  0  0
 10 35  1  0  0  0  0
 11 36  1  0  0  0  0
 12 37  1  0  0  0  0
 12 38  1  0  0  0  0
 12 39  1  0  0  0  0
 16 40  1  0  0  0  0
 17 41  1  0  0  0  0
 18 42  1  0  0  0  0
 19 43  1  0  0  0  0
 20 44  1  0  0  0  0
 22 45  1  0  0  0  0
 25 46  1  0  0  0  0
 26 47  1  0  0  0  0
 26 48  1  0  0  0  0
 28 49  1  0  0  0  0
 29 50  1  0  0  0  0
 29 51  1  0  0  0  0
 29 52  1  0  0  0  0
 30 53  1  0  0  0  0
 30 54  1  0  0  0  0
 30 55  1  0  0  0  0
M  END
> <Name>
20

> <IC50[uM]>
0.016

$$$$
20
  -OEChem-05192314333D
 Structure written by MMmdl.
 55 58  0     1  0  0  0  0  0999 V2000
   -6.3740   12.3524  -12.0161 C   0  0  0  0  0  0  0  0  0  0  0  0
   -6.5100   11.8065  -10.7374 C   0  0  0  0  0  0  0  0  0  0  0  0
   -7.7222   10.5841  -13.0265 C   0  0  0  0  0  0  0  0  0  0  0  0
   -6.9887   11.7756  -13.1353 C   0  0  0  0  0  0  0  0  0  0  0  0
   -7.8163   10.0177  -11.7563 C   0  0  0  0  0  0  0  0  0  0  0  0
   -7.2425   10.6185  -10.6022 C   0  0  3  0  0  0  0  0  0  0  0  0
   -7.6172    9.7487   -9.5090 C   0  0  0  0  0  0  0  0  0  0  0  0
   -8.2846    8.7289   -9.9848 N   0  0  0  0  0  0  0  0  0  0  0  0
   -8.4176    8.8659  -11.2967 N   0  0  0  0  0  0  0  0  0  0  0  0
   -7.3368    9.8884   -8.0257 C   0  0  0  0  0  0  0  0  0  0  0  0
   -4.4023   13.6480  -11.4578 N   0  0  0  0  0  0  0  0  0  0  0  0
   -3.4623   14.7747  -11.4948 C   0  0  0  0  0  0  0  0  0  0  0  0
   -5.5331   13.6158  -12.1961 C   0  0  0  0  0  0  0  0  0  0  0  0
   -5.8776   14.5022  -12.9731 O   0  0  0  0  0  0  0  0  0  0  0  0
   -5.9585   10.4860   -7.7354 C   0  0  0  0  0  0  0  0  0  0  0  0
   -5.8494   11.7555   -7.1596 C   0  0  0  0  0  0  0  0  0  0  0  0
   -4.5968   12.3068   -6.9148 C   0  0  0  0  0  0  0  0  0  0  0  0
   -3.4468   11.5860   -7.2370 C   0  0  0  0  0  0  0  0  0  0  0  0
   -3.5513   10.3089   -7.8057 C   0  0  0  0  0  0  0  0  0  0  0  0
   -4.8090    9.7654   -8.0523 C   0  0  0  0  0  0  0  0  0  0  0  0
   -2.0901   12.1669   -6.9801 C   0  0  0  0  0  0  0  0  0  0  0  0
   -1.7479   13.4121   -6.4872 C   0  0  0  0  0  0  0  0  0  0  0  0
   -0.3990   13.4663   -6.4328 N   0  0  0  0  0  0  0  0  0  0  0  0
    0.1869   12.3691   -6.8386 N   0  0  0  0  0  0  0  0  0  0  0  0
   -0.8034   11.5628   -7.1902 C   0  0  0  0  0  0  0  0  0  0  0  0
    0.4389   14.5894   -5.9640 C   0  0  0  0  0  0  0  0  0  0  0  0
    1.5042   14.2139   -4.8744 C   0  0  0  0  0  0  0  0  0  0  0  0
    2.6302   13.6295   -5.4977 O   0  0  0  0  0  0  0  0  0  0  0  0
    0.9501   13.1612   -3.9053 C   0  0  0  0  0  0  0  0  0  0  0  0
    2.0179   15.4484   -4.1037 C   0  0  0  0  0  0  0  0  0  0  0  0
   -6.0641   12.2854   -9.8782 H   0  0  0  0  0  0  0  0  0  0  0  0
   -8.1913   10.1279  -13.8857 H   0  0  0  0  0  0  0  0  0  0  0  0
   -6.8965   12.2561  -14.0981 H   0  0  0  0  0  0  0  0  0  0  0  0
   -6.3233   10.0335  -10.7537 H   0  0  0  0  0  0  0  0  0  0  0  0
   -8.0357    9.5970   -7.2556 H   0  0  0  0  0  0  0  0  0  0  0  0
   -4.1971   12.8720  -10.8613 H   0  0  0  0  0  0  0  0  0  0  0  0
   -2.6221   14.5745  -10.8136 H   0  0  0  0  0  0  0  0  0  0  0  0
   -3.0817   14.9010  -12.5191 H   0  0  0  0  0  0  0  0  0  0  0  0
   -3.9787   15.6934  -11.1797 H   0  0  0  0  0  0  0  0  0  0  0  0
   -6.7407   12.3094   -6.9043 H   0  0  0  0  0  0  0  0  0  0  0  0
   -4.5143   13.2904   -6.4764 H   0  0  0  0  0  0  0  0  0  0  0  0
   -3.4456   11.1385   -6.2321 H   0  0  0  0  0  0  0  0  0  0  0  0
   -2.6607    9.7496   -8.0512 H   0  0  0  0  0  0  0  0  0  0  0  0
   -4.8939    8.7820   -8.4907 H   0  0  0  0  0  0  0  0  0  0  0  0
   -2.4321   14.1965   -6.1989 H   0  0  0  0  0  0  0  0  0  0  0  0
   -0.6606   10.5688   -7.5878 H   0  0  0  0  0  0  0  0  0  0  0  0
    0.9713   15.0036   -6.8329 H   0  0  0  0  0  0  0  0  0  0  0  0
   -0.2256   15.3572   -5.5409 H   0  0  0  0  0  0  0  0  0  0  0  0
    3.2752   13.4021   -4.8384 H   0  0  0  0  0  0  0  0  0  0  0  0
    1.7145   12.9160   -3.1533 H   0  0  0  0  0  0  0  0  0  0  0  0
    0.0563   13.5598   -3.4030 H   0  0  0  0  0  0  0  0  0  0  0  0
    0.6818   12.2530   -4.4649 H   0  0  0  0  0  0  0  0  0  0  0  0
    2.7591   15.1317   -3.3552 H   0  0  0  0  0  0  0  0  0  0  0  0
    2.4859   16.1517   -4.8082 H   0  0  0  0  0  0  0  0  0  0  0  0
    1.1747   15.9421   -3.5985 H   0  0  0  0  0  0  0  0  0  0  0  0
  1  2  2  0  0  0  0
  1  4  1  0  0  0  0
  1 13  1  0  0  0  0
  2  6  1  0  0  0  0
  3  4  2  0  0  0  0
  3  5  1  0  0  0  0
  5  6  1  0  0  0  0
  5  9  2  0  0  0  0
  6  7  1  0  0  0  0
  7  8  2  0  0  0  0
  7 10  1  0  0  0  0
  8  9  1  0  0  0  0
 10 15  2  0  0  0  0
 11 12  1  0  0  0  0
 11 13  1  0  0  0  0
 13 14  2  0  0  0  0
 15 16  1  0  0  0  0
 15 20  1  0  0  0  0
 16 17  2  0  0  0  0
 17 18  1  0  0  0  0
 18 19  1  0  0  0  0
 18 21  1  0  0  0  0
 19 20  2  0  0  0  0
 21 22  2  0  0  0  0
 21 25  1  0  0  0  0
 22 23  1  0  0  0  0
 23 24  1  0  0  0  0
 23 26  1  0  0  0  0
 24 25  2  0  0  0  0
 26 27  1  0  0  0  0
 27 28  1  0  0  0  0
 27 29  1  0  0  0  0
 27 30  1  0  0  0  0
  2 31  1  0  0  0  0
  3 32  1  0  0  0  0
  4 33  1  0  0  0  0
  6 34  1  0  0  0  0
 10 35  1  0  0  0  0
 11 36  1  0  0  0  0
 12 37  1  0  0  0  0
 12 38  1  0  0  0  0
 12 39  1  0  0  0  0
 16 40  1  0  0  0  0
 17 41  1  0  0  0  0
 18 42  1  0  0  0  0
 19 43  1  0  0  0  0
 20 44  1  0  0  0  0
 22 45  1  0  0  0  0
 25 46  1  0  0  0  0
 26 47  1  0  0  0  0
 26 48  1  0  0  0  0
 28 49  1  0  0  0  0
 29 50  1  0  0  0  0
 29 51  1  0  0  0  0
 29 52  1  0  0  0  0
 30 53  1  0  0  0  0
 30 54  1  0  0  0  0
 30 55  1  0  0  0  0
M  END
> <Name>
20

> <IC50[uM]>
0.016

$$$$
20
  -OEChem-05192314333D
 Structure written by MMmdl.
 55 58  0     0  0  0  0  0  0999 V2000
   -6.3740   12.3524  -12.0161 C   0  0  0  0  0  0  0  0  0  0  0  0
   -6.5100   11.8065  -10.7374 C   0  0  0  0  0  0  0  0  0  0  0  0
   -7.7222   10.5841  -13.0265 C   0  0  0  0  0  0  0  0  0  0  0  0
   -6.9887   11.7756  -13.1353 C   0  0  0  0  0  0  0  0  0  0  0  0
   -7.8163   10.0177  -11.7563 C   0  0  0  0  0  0  0  0  0  0  0  0
   -7.2425   10.6185  -10.6022 C   0  0  0  0  0  0  0  0  0  0  0  0
   -7.6172    9.7487   -9.5090 C   0  0  0  0  0  0  0  0  0  0  0  0
   -8.2846    8.7289   -9.9848 N   0  0  0  0  0  0  0  0  0  0  0  0
   -8.4176    8.8659  -11.2967 N   0  0  0  0  0  0  0  0  0  0  0  0
   -7.3368    9.8884   -8.0257 C   0  0  0  0  0  0  0  0  0  0  0  0
   -4.4023   13.6480  -11.4578 N   0  0  0  0  0  0  0  0  0  0  0  0
   -3.4623   14.7747  -11.4948 C   0  0  0  0  0  0  0  0  0  0  0  0
   -5.5331   13.6158  -12.1961 C   0  0  0  0  0  0  0  0  0  0  0  0
   -5.8776   14.5022  -12.9731 O   0  0  0  0  0  0  0  0  0  0  0  0
   -5.9585   10.4860   -7.7354 C   0  0  0  0  0  0  0  0  0  0  0  0
   -5.8494   11.7555   -7.1596 C   0  0  0  0  0  0  0  0  0  0  0  0
   -4.5968   12.3068   -6.9148 C   0  0  0  0  0  0  0  0  0  0  0  0
   -3.4468   11.5860   -7.2370 C   0  0  0  0  0  0  0  0  0  0  0  0
   -3.5513   10.3089   -7.8057 C   0  0  0  0  0  0  0  0  0  0  0  0
   -4.8090    9.7654   -8.0523 C   0  0  0  0  0  0  0  0  0  0  0  0
   -2.0901   12.1669   -6.9801 C   0  0  0  0  0  0  0  0  0  0  0  0
   -1.7479   13.4121   -6.4872 C   0  0  0  0  0  0  0  0  0  0  0  0
   -0.3990   13.4663   -6.4328 N   0  0  0  0  0  0  0  0  0  0  0  0
    0.1869   12.3691   -6.8386 N   0  0  0  0  0  0  0  0  0  0  0  0
   -0.8034   11.5628   -7.1902 C   0  0  0  0  0  0  0  0  0  0  0  0
    0.4389   14.5894   -5.9640 C   0  0  0  0  0  0  0  0  0  0  0  0
    1.5042   14.2139   -4.8744 C   0  0  0  0  0  0  0  0  0  0  0  0
    2.6302   13.6295   -5.4977 O   0  0  0  0  0  0  0  0  0  0  0  0
    0.9501   13.1612   -3.9053 C   0  0  0  0  0  0  0  0  0  0  0  0
    2.0179   15.4484   -4.1037 C   0  0  0  0  0  0  0  0  0  0  0  0
   -6.0641   12.2854   -9.8782 H   0  0  0  0  0  0  0  0  0  0  0  0
   -8.7448   10.7898  -13.3757 H   0  0  0  0  0  0  0  0  0  0  0  0
   -7.2513    9.8419  -13.6878 H   0  0  0  0  0  0  0  0  0  0  0  0
   -6.8965   12.2561  -14.0981 H   0  0  0  0  0  0  0  0  0  0  0  0
   -8.0357    9.5970   -7.2556 H   0  0  0  0  0  0  0  0  0  0  0  0
   -4.1971   12.8720  -10.8613 H   0  0  0  0  0  0  0  0  0  0  0  0
   -2.6221   14.5745  -10.8136 H   0  0  0  0  0  0  0  0  0  0  0  0
   -3.0817   14.9010  -12.5191 H   0  0  0  0  0  0  0  0  0  0  0  0
   -3.9787   15.6934  -11.1797 H   0  0  0  0  0  0  0  0  0  0  0  0
   -6.7407   12.3094   -6.9043 H   0  0  0  0  0  0  0  0  0  0  0  0
   -4.5143   13.2904   -6.4764 H   0  0  0  0  0  0  0  0  0  0  0  0
   -3.4456   11.1385   -6.2321 H   0  0  0  0  0  0  0  0  0  0  0  0
   -2.6607    9.7496   -8.0512 H   0  0  0  0  0  0  0  0  0  0  0  0
   -4.8939    8.7820   -8.4907 H   0  0  0  0  0  0  0  0  0  0  0  0
   -2.4321   14.1965   -6.1989 H   0  0  0  0  0  0  0  0  0  0  0  0
   -0.6606   10.5688   -7.5878 H   0  0  0  0  0  0  0  0  0  0  0  0
    0.9713   15.0036   -6.8329 H   0  0  0  0  0  0  0  0  0  0  0  0
   -0.2256   15.3572   -5.5409 H   0  0  0  0  0  0  0  0  0  0  0  0
    3.2752   13.4021   -4.8384 H   0  0  0  0  0  0  0  0  0  0  0  0
    1.7145   12.9160   -3.1533 H   0  0  0  0  0  0  0  0  0  0  0  0
    0.0563   13.5598   -3.4030 H   0  0  0  0  0  0  0  0  0  0  0  0
    0.6818   12.2530   -4.4649 H   0  0  0  0  0  0  0  0  0  0  0  0
    2.7591   15.1317   -3.3552 H   0  0  0  0  0  0  0  0  0  0  0  0
    2.4859   16.1517   -4.8082 H   0  0  0  0  0  0  0  0  0  0  0  0
    1.1747   15.9421   -3.5985 H   0  0  0  0  0  0  0  0  0  0  0  0
  1  2  1  0  0  0  0
  1  4  2  0  0  0  0
  1 13  1  0  0  0  0
  2  6  2  0  0  0  0
  3  4  1  0  0  0  0
  3  5  1  0  0  0  0
  5  6  1  0  0  0  0
  5  9  2  0  0  0  0
  6  7  1  0  0  0  0
  7  8  2  0  0  0  0
  7 10  1  0  0  0  0
  8  9  1  0  0  0  0
 10 15  2  0  0  0  0
 11 12  1  0  0  0  0
 11 13  1  0  0  0  0
 13 14  2  0  0  0  0
 15 16  1  0  0  0  0
 15 20  1  0  0  0  0
 16 17  2  0  0  0  0
 17 18  1  0  0  0  0
 18 19  1  0  0  0  0
 18 21  1  0  0  0  0
 19 20  2  0  0  0  0
 21 22  2  0  0  0  0
 21 25  1  0  0  0  0
 22 23  1  0  0  0  0
 23 24  1  0  0  0  0
 23 26  1  0  0  0  0
 24 25  2  0  0  0  0
 26 27  1  0  0  0  0
 27 28  1  0  0  0  0
 27 29  1  0  0  0  0
 27 30  1  0  0  0  0
  2 31  1  0  0  0  0
  3 32  1  0  0  0  0
  3 33  1  0  0  0  0
  4 34  1  0  0  0  0
 10 35  1  0  0  0  0
 11 36  1  0  0  0  0
 12 37  1  0  0  0  0
 12 38  1  0  0  0  0
 12 39  1  0  0  0  0
 16 40  1  0  0  0  0
 17 41  1  0  0  0  0
 18 42  1  0  0  0  0
 19 43  1  0  0  0  0
 20 44  1  0  0  0  0
 22 45  1  0  0  0  0
 25 46  1  0  0  0  0
 26 47  1  0  0  0  0
 26 48  1  0  0  0  0
 28 49  1  0  0  0  0
 29 50  1  0  0  0  0
 29 51  1  0  0  0  0
 29 52  1  0  0  0  0
 30 53  1  0  0  0  0
 30 54  1  0  0  0  0
 30 55  1  0  0  0  0
M  END
> <Name>
20

> <IC50[uM]>
0.016

$$$$
20
  -OEChem-05192314333D
 Structure written by MMmdl.
 55 58  0     1  0  0  0  0  0999 V2000
   -6.3740   12.3524  -12.0161 C   0  0  3  0  0  0  0  0  0  0  0  0
   -6.5100   11.8065  -10.7374 C   0  0  0  0  0  0  0  0  0  0  0  0
   -7.7222   10.5841  -13.0265 C   0  0  0  0  0  0  0  0  0  0  0  0
   -6.9887   11.7756  -13.1353 C   0  0  0  0  0  0  0  0  0  0  0  0
   -7.8163   10.0177  -11.7563 C   0  0  0  0  0  0  0  0  0  0  0  0
   -7.2425   10.6185  -10.6022 C   0  0  0  0  0  0  0  0  0  0  0  0
   -7.6172    9.7487   -9.5090 C   0  0  0  0  0  0  0  0  0  0  0  0
   -8.2846    8.7289   -9.9848 N   0  0  0  0  0  0  0  0  0  0  0  0
   -8.4176    8.8659  -11.2967 N   0  0  0  0  0  0  0  0  0  0  0  0
   -7.3368    9.8884   -8.0257 C   0  0  0  0  0  0  0  0  0  0  0  0
   -4.4023   13.6480  -11.4578 N   0  0  0  0  0  0  0  0  0  0  0  0
   -3.4623   14.7747  -11.4948 C   0  0  0  0  0  0  0  0  0  0  0  0
   -5.5331   13.6158  -12.1961 C   0  0  0  0  0  0  0  0  0  0  0  0
   -5.8776   14.5022  -12.9731 O   0  0  0  0  0  0  0  0  0  0  0  0
   -5.9585   10.4860   -7.7354 C   0  0  0  0  0  0  0  0  0  0  0  0
   -5.8494   11.7555   -7.1596 C   0  0  0  0  0  0  0  0  0  0  0  0
   -4.5968   12.3068   -6.9148 C   0  0  0  0  0  0  0  0  0  0  0  0
   -3.4468   11.5860   -7.2370 C   0  0  0  0  0  0  0  0  0  0  0  0
   -3.5513   10.3089   -7.8057 C   0  0  0  0  0  0  0  0  0  0  0  0
   -4.8090    9.7654   -8.0523 C   0  0  0  0  0  0  0  0  0  0  0  0
   -2.0901   12.1669   -6.9801 C   0  0  0  0  0  0  0  0  0  0  0  0
   -1.7479   13.4121   -6.4872 C   0  0  0  0  0  0  0  0  0  0  0  0
   -0.3990   13.4663   -6.4328 N   0  0  0  0  0  0  0  0  0  0  0  0
    0.1869   12.3691   -6.8386 N   0  0  0  0  0  0  0  0  0  0  0  0
   -0.8034   11.5628   -7.1902 C   0  0  0  0  0  0  0  0  0  0  0  0
    0.4389   14.5894   -5.9640 C   0  0  0  0  0  0  0  0  0  0  0  0
    1.5042   14.2139   -4.8744 C   0  0  0  0  0  0  0  0  0  0  0  0
    2.6302   13.6295   -5.4977 O   0  0  0  0  0  0  0  0  0  0  0  0
    0.9501   13.1612   -3.9053 C   0  0  0  0  0  0  0  0  0  0  0  0
    2.0179   15.4484   -4.1037 C   0  0  0  0  0  0  0  0  0  0  0  0
   -5.4811   11.7330  -12.1864 H   0  0  0  0  0  0  0  0  0  0  0  0
   -6.0641   12.2854   -9.8782 H   0  0  0  0  0  0  0  0  0  0  0  0
   -8.1913   10.1279  -13.8857 H   0  0  0  0  0  0  0  0  0  0  0  0
   -6.8965   12.2561  -14.0981 H   0  0  0  0  0  0  0  0  0  0  0  0
   -8.0357    9.5970   -7.2556 H   0  0  0  0  0  0  0  0  0  0  0  0
   -4.1971   12.8720  -10.8613 H   0  0  0  0  0  0  0  0  0  0  0  0
   -2.6221   14.5745  -10.8136 H   0  0  0  0  0  0  0  0  0  0  0  0
   -3.0817   14.9010  -12.5191 H   0  0  0  0  0  0  0  0  0  0  0  0
   -3.9787   15.6934  -11.1797 H   0  0  0  0  0  0  0  0  0  0  0  0
   -6.7407   12.3094   -6.9043 H   0  0  0  0  0  0  0  0  0  0  0  0
   -4.5143   13.2904   -6.4764 H   0  0  0  0  0  0  0  0  0  0  0  0
   -2.6607    9.7496   -8.0512 H   0  0  0  0  0  0  0  0  0  0  0  0
   -4.8619    8.8217   -7.4897 H   0  0  0  0  0  0  0  0  0  0  0  0
   -4.8560    9.5526   -9.1305 H   0  0  0  0  0  0  0  0  0  0  0  0
   -2.4321   14.1965   -6.1989 H   0  0  0  0  0  0  0  0  0  0  0  0
   -0.6606   10.5688   -7.5878 H   0  0  0  0  0  0  0  0  0  0  0  0
    0.9713   15.0036   -6.8329 H   0  0  0  0  0  0  0  0  0  0  0  0
   -0.2256   15.3572   -5.5409 H   0  0  0  0  0  0  0  0  0  0  0  0
    3.2752   13.4021   -4.8384 H   0  0  0  0  0  0  0  0  0  0  0  0
    1.7145   12.9160   -3.1533 H   0  0  0  0  0  0  0  0  0  0  0  0
    0.0563   13.5598   -3.4030 H   0  0  0  0  0  0  0  0  0  0  0  0
    0.6818   12.2530   -4.4649 H   0  0  0  0  0  0  0  0  0  0  0  0
    2.7591   15.1317   -3.3552 H   0  0  0  0  0  0  0  0  0  0  0  0
    2.4859   16.1517   -4.8082 H   0  0  0  0  0  0  0  0  0  0  0  0
    1.1747   15.9421   -3.5985 H   0  0  0  0  0  0  0  0  0  0  0  0
  1  2  1  0  0  0  0
  1  4  1  0  0  0  0
  1 13  1  0  0  0  0
  2  6  2  0  0  0  0
  3  4  2  0  0  0  0
  3  5  1  0  0  0  0
  5  6  1  0  0  0  0
  5  9  2  0  0  0  0
  6  7  1  0  0  0  0
  7  8  2  0  0  0  0
  7 10  1  0  0  0  0
  8  9  1  0  0  0  0
 10 15  2  3  0  0  0
 11 12  1  0  0  0  0
 11 13  1  0  0  0  0
 13 14  2  0  0  0  0
 15 16  1  0  0  0  0
 15 20  1  0  0  0  0
 16 17  2  0  0  0  0
 17 18  1  0  0  0  0
 18 19  2  0  0  0  0
 18 21  1  0  0  0  0
 19 20  1  0  0  0  0
 21 22  2  0  0  0  0
 21 25  1  0  0  0  0
 22 23  1  0  0  0  0
 23 24  1  0  0  0  0
 23 26  1  0  0  0  0
 24 25  2  0  0  0  0
 26 27  1  0  0  0  0
 27 28  1  0  0  0  0
 27 29  1  0  0  0  0
 27 30  1  0  0  0  0
  1 31  1  0  0  0  0
  2 32  1  0  0  0  0
  3 33  1  0  0  0  0
  4 34  1  0  0  0  0
 10 35  1  0  0  0  0
 11 36  1  0  0  0  0
 12 37  1  0  0  0  0
 12 38  1  0  0  0  0
 12 39  1  0  0  0  0
 16 40  1  0  0  0  0
 17 41  1  0  0  0  0
 19 42  1  0  0  0  0
 20 43  1  0  0  0  0
 20 44  1  0  0  0  0
 22 45  1  0  0  0  0
 25 46  1  0  0  0  0
 26 47  1  0  0  0  0
 26 48  1  0  0  0  0
 28 49  1  0  0  0  0
 29 50  1  0  0  0  0
 29 51  1  0  0  0  0
 29 52  1  0  0  0  0
 30 53  1  0  0  0  0
 30 54  1  0  0  0  0
 30 55  1  0  0  0  0
M  END
> <Name>
20

> <IC50[uM]>
0.016

$$$$
20
  -OEChem-05192314333D
 Structure written by MMmdl.
 55 58  0     1  0  0  0  0  0999 V2000
   -6.3740   12.3524  -12.0161 C   0  0  0  0  0  0  0  0  0  0  0  0
   -6.5100   11.8065  -10.7374 C   0  0  0  0  0  0  0  0  0  0  0  0
   -7.7222   10.5841  -13.0265 C   0  0  0  0  0  0  0  0  0  0  0  0
   -6.9887   11.7756  -13.1353 C   0  0  0  0  0  0  0  0  0  0  0  0
   -7.8163   10.0177  -11.7563 C   0  0  0  0  0  0  0  0  0  0  0  0
   -7.2425   10.6185  -10.6022 C   0  0  3  0  0  0  0  0  0  0  0  0
   -7.6172    9.7487   -9.5090 C   0  0  0  0  0  0  0  0  0  0  0  0
   -8.2846    8.7289   -9.9848 N   0  0  0  0  0  0  0  0  0  0  0  0
   -8.4176    8.8659  -11.2967 N   0  0  0  0  0  0  0  0  0  0  0  0
   -7.3368    9.8884   -8.0257 C   0  0  0  0  0  0  0  0  0  0  0  0
   -4.4023   13.6480  -11.4578 N   0  0  0  0  0  0  0  0  0  0  0  0
   -3.4623   14.7747  -11.4948 C   0  0  0  0  0  0  0  0  0  0  0  0
   -5.5331   13.6158  -12.1961 C   0  0  0  0  0  0  0  0  0  0  0  0
   -5.8776   14.5022  -12.9731 O   0  0  0  0  0  0  0  0  0  0  0  0
   -5.9585   10.4860   -7.7354 C   0  0  0  0  0  0  0  0  0  0  0  0
   -5.8494   11.7555   -7.1596 C   0  0  0  0  0  0  0  0  0  0  0  0
   -4.5968   12.3068   -6.9148 C   0  0  0  0  0  0  0  0  0  0  0  0
   -3.4468   11.5860   -7.2370 C   0  0  0  0  0  0  0  0  0  0  0  0
   -3.5513   10.3089   -7.8057 C   0  0  0  0  0  0  0  0  0  0  0  0
   -4.8090    9.7654   -8.0523 C   0  0  0  0  0  0  0  0  0  0  0  0
   -2.0901   12.1669   -6.9801 C   0  0  0  0  0  0  0  0  0  0  0  0
   -1.7479   13.4121   -6.4872 C   0  0  0  0  0  0  0  0  0  0  0  0
   -0.3990   13.4663   -6.4328 N   0  0  0  0  0  0  0  0  0  0  0  0
    0.1869   12.3691   -6.8386 N   0  0  0  0  0  0  0  0  0  0  0  0
   -0.8034   11.5628   -7.1902 C   0  0  0  0  0  0  0  0  0  0  0  0
    0.4389   14.5894   -5.9640 C   0  0  0  0  0  0  0  0  0  0  0  0
    1.5042   14.2139   -4.8744 C   0  0  0  0  0  0  0  0  0  0  0  0
    2.6302   13.6295   -5.4977 O   0  0  0  0  0  0  0  0  0  0  0  0
    0.9501   13.1612   -3.9053 C   0  0  0  0  0  0  0  0  0  0  0  0
    2.0179   15.4484   -4.1037 C   0  0  0  0  0  0  0  0  0  0  0  0
   -6.0641   12.2854   -9.8782 H   0  0  0  0  0  0  0  0  0  0  0  0
   -8.1913   10.1279  -13.8857 H   0  0  0  0  0  0  0  0  0  0  0  0
   -6.8965   12.2561  -14.0981 H   0  0  0  0  0  0  0  0  0  0  0  0
   -6.3233   10.0335  -10.7537 H   0  0  0  0  0  0  0  0  0  0  0  0
   -8.0357    9.5970   -7.2556 H   0  0  0  0  0  0  0  0  0  0  0  0
   -4.1971   12.8720  -10.8613 H   0  0  0  0  0  0  0  0  0  0  0  0
   -2.6221   14.5745  -10.8136 H   0  0  0  0  0  0  0  0  0  0  0  0
   -3.0817   14.9010  -12.5191 H   0  0  0  0  0  0  0  0  0  0  0  0
   -3.9787   15.6934  -11.1797 H   0  0  0  0  0  0  0  0  0  0  0  0
   -6.7407   12.3094   -6.9043 H   0  0  0  0  0  0  0  0  0  0  0  0
   -4.5143   13.2904   -6.4764 H   0  0  0  0  0  0  0  0  0  0  0  0
   -2.6607    9.7496   -8.0512 H   0  0  0  0  0  0  0  0  0  0  0  0
   -4.8619    8.8217   -7.4897 H   0  0  0  0  0  0  0  0  0  0  0  0
   -4.8560    9.5526   -9.1305 H   0  0  0  0  0  0  0  0  0  0  0  0
   -2.4321   14.1965   -6.1989 H   0  0  0  0  0  0  0  0  0  0  0  0
   -0.6606   10.5688   -7.5878 H   0  0  0  0  0  0  0  0  0  0  0  0
    0.9713   15.0036   -6.8329 H   0  0  0  0  0  0  0  0  0  0  0  0
   -0.2256   15.3572   -5.5409 H   0  0  0  0  0  0  0  0  0  0  0  0
    3.2752   13.4021   -4.8384 H   0  0  0  0  0  0  0  0  0  0  0  0
    1.7145   12.9160   -3.1533 H   0  0  0  0  0  0  0  0  0  0  0  0
    0.0563   13.5598   -3.4030 H   0  0  0  0  0  0  0  0  0  0  0  0
    0.6818   12.2530   -4.4649 H   0  0  0  0  0  0  0  0  0  0  0  0
    2.7591   15.1317   -3.3552 H   0  0  0  0  0  0  0  0  0  0  0  0
    2.4859   16.1517   -4.8082 H   0  0  0  0  0  0  0  0  0  0  0  0
    1.1747   15.9421   -3.5985 H   0  0  0  0  0  0  0  0  0  0  0  0
  1  2  2  0  0  0  0
  1  4  1  0  0  0  0
  1 13  1  0  0  0  0
  2  6  1  0  0  0  0
  3  4  2  0  0  0  0
  3  5  1  0  0  0  0
  5  6  1  0  0  0  0
  5  9  2  0  0  0  0
  6  7  1  0  0  0  0
  7  8  2  0  0  0  0
  7 10  1  0  0  0  0
  8  9  1  0  0  0  0
 10 15  2  3  0  0  0
 11 12  1  0  0  0  0
 11 13  1  0  0  0  0
 13 14  2  0  0  0  0
 15 16  1  0  0  0  0
 15 20  1  0  0  0  0
 16 17  2  0  0  0  0
 17 18  1  0  0  0  0
 18 19  2  0  0  0  0
 18 21  1  0  0  0  0
 19 20  1  0  0  0  0
 21 22  2  0  0  0  0
 21 25  1  0  0  0  0
 22 23  1  0  0  0  0
 23 24  1  0  0  0  0
 23 26  1  0  0  0  0
 24 25  2  0  0  0  0
 26 27  1  0  0  0  0
 27 28  1  0  0  0  0
 27 29  1  0  0  0  0
 27 30  1  0  0  0  0
  2 31  1  0  0  0  0
  3 32  1  0  0  0  0
  4 33  1  0  0  0  0
  6 34  1  0  0  0  0
 10 35  1  0  0  0  0
 11 36  1  0  0  0  0
 12 37  1  0  0  0  0
 12 38  1  0  0  0  0
 12 39  1  0  0  0  0
 16 40  1  0  0  0  0
 17 41  1  0  0  0  0
 19 42  1  0  0  0  0
 20 43  1  0  0  0  0
 20 44  1  0  0  0  0
 22 45  1  0  0  0  0
 25 46  1  0  0  0  0
 26 47  1  0  0  0  0
 26 48  1  0  0  0  0
 28 49  1  0  0  0  0
 29 50  1  0  0  0  0
 29 51  1  0  0  0  0
 29 52  1  0  0  0  0
 30 53  1  0  0  0  0
 30 54  1  0  0  0  0
 30 55  1  0  0  0  0
M  END
> <Name>
20

> <IC50[uM]>
0.016

$$$$
20
  -OEChem-05192314333D
 Structure written by MMmdl.
 55 58  0     0  0  0  0  0  0999 V2000
   -6.3740   12.3524  -12.0161 C   0  0  0  0  0  0  0  0  0  0  0  0
   -6.5100   11.8065  -10.7374 C   0  0  0  0  0  0  0  0  0  0  0  0
   -7.7222   10.5841  -13.0265 C   0  0  0  0  0  0  0  0  0  0  0  0
   -6.9887   11.7756  -13.1353 C   0  0  0  0  0  0  0  0  0  0  0  0
   -7.8163   10.0177  -11.7563 C   0  0  0  0  0  0  0  0  0  0  0  0
   -7.2425   10.6185  -10.6022 C   0  0  0  0  0  0  0  0  0  0  0  0
   -7.6172    9.7487   -9.5090 C   0  0  0  0  0  0  0  0  0  0  0  0
   -8.2846    8.7289   -9.9848 N   0  0  0  0  0  0  0  0  0  0  0  0
   -8.4176    8.8659  -11.2967 N   0  0  0  0  0  0  0  0  0  0  0  0
   -7.3368    9.8884   -8.0257 C   0  0  0  0  0  0  0  0  0  0  0  0
   -4.4023   13.6480  -11.4578 N   0  0  0  0  0  0  0  0  0  0  0  0
   -3.4623   14.7747  -11.4948 C   0  0  0  0  0  0  0  0  0  0  0  0
   -5.5331   13.6158  -12.1961 C   0  0  0  0  0  0  0  0  0  0  0  0
   -5.8776   14.5022  -12.9731 O   0  0  0  0  0  0  0  0  0  0  0  0
   -5.9585   10.4860   -7.7354 C   0  0  0  0  0  0  0  0  0  0  0  0
   -5.8494   11.7555   -7.1596 C   0  0  0  0  0  0  0  0  0  0  0  0
   -4.5968   12.3068   -6.9148 C   0  0  0  0  0  0  0  0  0  0  0  0
   -3.4468   11.5860   -7.2370 C   0  0  0  0  0  0  0  0  0  0  0  0
   -3.5513   10.3089   -7.8057 C   0  0  0  0  0  0  0  0  0  0  0  0
   -4.8090    9.7654   -8.0523 C   0  0  0  0  0  0  0  0  0  0  0  0
   -2.0901   12.1669   -6.9801 C   0  0  0  0  0  0  0  0  0  0  0  0
   -1.7479   13.4121   -6.4872 C   0  0  0  0  0  0  0  0  0  0  0  0
   -0.3990   13.4663   -6.4328 N   0  0  0  0  0  0  0  0  0  0  0  0
    0.1869   12.3691   -6.8386 N   0  0  0  0  0  0  0  0  0  0  0  0
   -0.8034   11.5628   -7.1902 C   0  0  0  0  0  0  0  0  0  0  0  0
    0.4389   14.5894   -5.9640 C   0  0  0  0  0  0  0  0  0  0  0  0
    1.5042   14.2139   -4.8744 C   0  0  0  0  0  0  0  0  0  0  0  0
    2.6302   13.6295   -5.4977 O   0  0  0  0  0  0  0  0  0  0  0  0
    0.9501   13.1612   -3.9053 C   0  0  0  0  0  0  0  0  0  0  0  0
    2.0179   15.4484   -4.1037 C   0  0  0  0  0  0  0  0  0  0  0  0
   -6.0641   12.2854   -9.8782 H   0  0  0  0  0  0  0  0  0  0  0  0
   -8.7448   10.7898  -13.3757 H   0  0  0  0  0  0  0  0  0  0  0  0
   -7.2513    9.8419  -13.6878 H   0  0  0  0  0  0  0  0  0  0  0  0
   -6.8965   12.2561  -14.0981 H   0  0  0  0  0  0  0  0  0  0  0  0
   -8.0357    9.5970   -7.2556 H   0  0  0  0  0  0  0  0  0  0  0  0
   -4.1971   12.8720  -10.8613 H   0  0  0  0  0  0  0  0  0  0  0  0
   -2.6221   14.5745  -10.8136 H   0  0  0  0  0  0  0  0  0  0  0  0
   -3.0817   14.9010  -12.5191 H   0  0  0  0  0  0  0  0  0  0  0  0
   -3.9787   15.6934  -11.1797 H   0  0  0  0  0  0  0  0  0  0  0  0
   -6.7407   12.3094   -6.9043 H   0  0  0  0  0  0  0  0  0  0  0  0
   -4.5143   13.2904   -6.4764 H   0  0  0  0  0  0  0  0  0  0  0  0
   -2.6607    9.7496   -8.0512 H   0  0  0  0  0  0  0  0  0  0  0  0
   -4.8619    8.8217   -7.4897 H   0  0  0  0  0  0  0  0  0  0  0  0
   -4.8560    9.5526   -9.1305 H   0  0  0  0  0  0  0  0  0  0  0  0
   -2.4321   14.1965   -6.1989 H   0  0  0  0  0  0  0  0  0  0  0  0
   -0.6606   10.5688   -7.5878 H   0  0  0  0  0  0  0  0  0  0  0  0
    0.9713   15.0036   -6.8329 H   0  0  0  0  0  0  0  0  0  0  0  0
   -0.2256   15.3572   -5.5409 H   0  0  0  0  0  0  0  0  0  0  0  0
    3.2752   13.4021   -4.8384 H   0  0  0  0  0  0  0  0  0  0  0  0
    1.7145   12.9160   -3.1533 H   0  0  0  0  0  0  0  0  0  0  0  0
    0.0563   13.5598   -3.4030 H   0  0  0  0  0  0  0  0  0  0  0  0
    0.6818   12.2530   -4.4649 H   0  0  0  0  0  0  0  0  0  0  0  0
    2.7591   15.1317   -3.3552 H   0  0  0  0  0  0  0  0  0  0  0  0
    2.4859   16.1517   -4.8082 H   0  0  0  0  0  0  0  0  0  0  0  0
    1.1747   15.9421   -3.5985 H   0  0  0  0  0  0  0  0  0  0  0  0
  1  2  1  0  0  0  0
  1  4  2  0  0  0  0
  1 13  1  0  0  0  0
  2  6  2  0  0  0  0
  3  4  1  0  0  0  0
  3  5  1  0  0  0  0
  5  6  1  0  0  0  0
  5  9  2  0  0  0  0
  6  7  1  0  0  0  0
  7  8  2  0  0  0  0
  7 10  1  0  0  0  0
  8  9  1  0  0  0  0
 10 15  2  3  0  0  0
 11 12  1  0  0  0  0
 11 13  1  0  0  0  0
 13 14  2  0  0  0  0
 15 16  1  0  0  0  0
 15 20  1  0  0  0  0
 16 17  2  0  0  0  0
 17 18  1  0  0  0  0
 18 19  2  0  0  0  0
 18 21  1  0  0  0  0
 19 20  1  0  0  0  0
 21 22  2  0  0  0  0
 21 25  1  0  0  0  0
 22 23  1  0  0  0  0
 23 24  1  0  0  0  0
 23 26  1  0  0  0  0
 24 25  2  0  0  0  0
 26 27  1  0  0  0  0
 27 28  1  0  0  0  0
 27 29  1  0  0  0  0
 27 30  1  0  0  0  0
  2 31  1  0  0  0  0
  3 32  1  0  0  0  0
  3 33  1  0  0  0  0
  4 34  1  0  0  0  0
 10 35  1  0  0  0  0
 11 36  1  0  0  0  0
 12 37  1  0  0  0  0
 12 38  1  0  0  0  0
 12 39  1  0  0  0  0
 16 40  1  0  0  0  0
 17 41  1  0  0  0  0
 19 42  1  0  0  0  0
 20 43  1  0  0  0  0
 20 44  1  0  0  0  0
 22 45  1  0  0  0  0
 25 46  1  0  0  0  0
 26 47  1  0  0  0  0
 26 48  1  0  0  0  0
 28 49  1  0  0  0  0
 29 50  1  0  0  0  0
 29 51  1  0  0  0  0
 29 52  1  0  0  0  0
 30 53  1  0  0  0  0
 30 54  1  0  0  0  0
 30 55  1  0  0  0  0
M  END
> <Name>
20

> <IC50[uM]>
0.016

$$$$
20
  -OEChem-05192314333D
 Structure written by MMmdl.
 55 58  0     1  0  0  0  0  0999 V2000
   -6.3740   12.3524  -12.0161 C   0  0  3  0  0  0  0  0  0  0  0  0
   -6.5100   11.8065  -10.7374 C   0  0  0  0  0  0  0  0  0  0  0  0
   -7.7222   10.5841  -13.0265 C   0  0  0  0  0  0  0  0  0  0  0  0
   -6.9887   11.7756  -13.1353 C   0  0  0  0  0  0  0  0  0  0  0  0
   -7.8163   10.0177  -11.7563 C   0  0  0  0  0  0  0  0  0  0  0  0
   -7.2425   10.6185  -10.6022 C   0  0  0  0  0  0  0  0  0  0  0  0
   -7.6172    9.7487   -9.5090 C   0  0  0  0  0  0  0  0  0  0  0  0
   -8.2846    8.7289   -9.9848 N   0  0  0  0  0  0  0  0  0  0  0  0
   -8.4176    8.8659  -11.2967 N   0  0  0  0  0  0  0  0  0  0  0  0
   -7.3368    9.8884   -8.0257 C   0  0  0  0  0  0  0  0  0  0  0  0
   -4.4023   13.6480  -11.4578 N   0  0  0  0  0  0  0  0  0  0  0  0
   -3.4623   14.7747  -11.4948 C   0  0  0  0  0  0  0  0  0  0  0  0
   -5.5331   13.6158  -12.1961 C   0  0  0  0  0  0  0  0  0  0  0  0
   -5.8776   14.5022  -12.9731 O   0  0  0  0  0  0  0  0  0  0  0  0
   -5.9585   10.4860   -7.7354 C   0  0  0  0  0  0  0  0  0  0  0  0
   -5.8494   11.7555   -7.1596 C   0  0  0  0  0  0  0  0  0  0  0  0
   -4.5968   12.3068   -6.9148 C   0  0  0  0  0  0  0  0  0  0  0  0
   -3.4468   11.5860   -7.2370 C   0  0  0  0  0  0  0  0  0  0  0  0
   -3.5513   10.3089   -7.8057 C   0  0  0  0  0  0  0  0  0  0  0  0
   -4.8090    9.7654   -8.0523 C   0  0  0  0  0  0  0  0  0  0  0  0
   -2.0901   12.1669   -6.9801 C   0  0  0  0  0  0  0  0  0  0  0  0
   -1.7479   13.4121   -6.4872 C   0  0  0  0  0  0  0  0  0  0  0  0
   -0.3990   13.4663   -6.4328 N   0  0  0  0  0  0  0  0  0  0  0  0
    0.1869   12.3691   -6.8386 N   0  0  0  0  0  0  0  0  0  0  0  0
   -0.8034   11.5628   -7.1902 C   0  0  0  0  0  0  0  0  0  0  0  0
    0.4389   14.5894   -5.9640 C   0  0  0  0  0  0  0  0  0  0  0  0
    1.5042   14.2139   -4.8744 C   0  0  0  0  0  0  0  0  0  0  0  0
    2.6302   13.6295   -5.4977 O   0  0  0  0  0  0  0  0  0  0  0  0
    0.9501   13.1612   -3.9053 C   0  0  0  0  0  0  0  0  0  0  0  0
    2.0179   15.4484   -4.1037 C   0  0  0  0  0  0  0  0  0  0  0  0
   -5.4811   11.7330  -12.1864 H   0  0  0  0  0  0  0  0  0  0  0  0
   -6.0641   12.2854   -9.8782 H   0  0  0  0  0  0  0  0  0  0  0  0
   -8.1913   10.1279  -13.8857 H   0  0  0  0  0  0  0  0  0  0  0  0
   -6.8965   12.2561  -14.0981 H   0  0  0  0  0  0  0  0  0  0  0  0
   -8.0357    9.5970   -7.2556 H   0  0  0  0  0  0  0  0  0  0  0  0
   -2.6221   14.5745  -10.8136 H   0  0  0  0  0  0  0  0  0  0  0  0
   -3.0817   14.9010  -12.5191 H   0  0  0  0  0  0  0  0  0  0  0  0
   -3.9787   15.6934  -11.1797 H   0  0  0  0  0  0  0  0  0  0  0  0
   -5.2393   15.2056  -12.9549 H   0  0  0  0  0  0  0  0  0  0  0  0
   -6.7407   12.3094   -6.9043 H   0  0  0  0  0  0  0  0  0  0  0  0
   -4.5143   13.2904   -6.4764 H   0  0  0  0  0  0  0  0  0  0  0  0
   -3.4456   11.1385   -6.2321 H   0  0  0  0  0  0  0  0  0  0  0  0
   -2.6607    9.7496   -8.0512 H   0  0  0  0  0  0  0  0  0  0  0  0
   -4.8939    8.7820   -8.4907 H   0  0  0  0  0  0  0  0  0  0  0  0
   -2.4321   14.1965   -6.1989 H   0  0  0  0  0  0  0  0  0  0  0  0
   -0.6606   10.5688   -7.5878 H   0  0  0  0  0  0  0  0  0  0  0  0
    0.9713   15.0036   -6.8329 H   0  0  0  0  0  0  0  0  0  0  0  0
   -0.2256   15.3572   -5.5409 H   0  0  0  0  0  0  0  0  0  0  0  0
    3.2752   13.4021   -4.8384 H   0  0  0  0  0  0  0  0  0  0  0  0
    1.7145   12.9160   -3.1533 H   0  0  0  0  0  0  0  0  0  0  0  0
    0.0563   13.5598   -3.4030 H   0  0  0  0  0  0  0  0  0  0  0  0
    0.6818   12.2530   -4.4649 H   0  0  0  0  0  0  0  0  0  0  0  0
    2.7591   15.1317   -3.3552 H   0  0  0  0  0  0  0  0  0  0  0  0
    2.4859   16.1517   -4.8082 H   0  0  0  0  0  0  0  0  0  0  0  0
    1.1747   15.9421   -3.5985 H   0  0  0  0  0  0  0  0  0  0  0  0
  1  2  1  0  0  0  0
  1  4  1  0  0  0  0
  1 13  1  0  0  0  0
  2  6  2  0  0  0  0
  3  4  2  0  0  0  0
  3  5  1  0  0  0  0
  5  6  1  0  0  0  0
  5  9  2  0  0  0  0
  6  7  1  0  0  0  0
  7  8  2  0  0  0  0
  7 10  1  0  0  0  0
  8  9  1  0  0  0  0
 10 15  2  0  0  0  0
 11 12  1  0  0  0  0
 11 13  2  0  0  0  0
 13 14  1  0  0  0  0
 15 16  1  0  0  0  0
 15 20  1  0  0  0  0
 16 17  2  0  0  0  0
 17 18  1  0  0  0  0
 18 19  1  0  0  0  0
 18 21  1  0  0  0  0
 19 20  2  0  0  0  0
 21 22  2  0  0  0  0
 21 25  1  0  0  0  0
 22 23  1  0  0  0  0
 23 24  1  0  0  0  0
 23 26  1  0  0  0  0
 24 25  2  0  0  0  0
 26 27  1  0  0  0  0
 27 28  1  0  0  0  0
 27 29  1  0  0  0  0
 27 30  1  0  0  0  0
  1 31  1  0  0  0  0
  2 32  1  0  0  0  0
  3 33  1  0  0  0  0
  4 34  1  0  0  0  0
 10 35  1  0  0  0  0
 12 36  1  0  0  0  0
 12 37  1  0  0  0  0
 12 38  1  0  0  0  0
 14 39  1  0  0  0  0
 16 40  1  0  0  0  0
 17 41  1  0  0  0  0
 18 42  1  0  0  0  0
 19 43  1  0  0  0  0
 20 44  1  0  0  0  0
 22 45  1  0  0  0  0
 25 46  1  0  0  0  0
 26 47  1  0  0  0  0
 26 48  1  0  0  0  0
 28 49  1  0  0  0  0
 29 50  1  0  0  0  0
 29 51  1  0  0  0  0
 29 52  1  0  0  0  0
 30 53  1  0  0  0  0
 30 54  1  0  0  0  0
 30 55  1  0  0  0  0
M  END
> <Name>
20

> <IC50[uM]>
0.016

$$$$
20
  -OEChem-05192314333D
 Structure written by MMmdl.
 55 58  0     1  0  0  0  0  0999 V2000
   -6.3740   12.3524  -12.0161 C   0  0  0  0  0  0  0  0  0  0  0  0
   -6.5100   11.8065  -10.7374 C   0  0  0  0  0  0  0  0  0  0  0  0
   -7.7222   10.5841  -13.0265 C   0  0  0  0  0  0  0  0  0  0  0  0
   -6.9887   11.7756  -13.1353 C   0  0  0  0  0  0  0  0  0  0  0  0
   -7.8163   10.0177  -11.7563 C   0  0  0  0  0  0  0  0  0  0  0  0
   -7.2425   10.6185  -10.6022 C   0  0  3  0  0  0  0  0  0  0  0  0
   -7.6172    9.7487   -9.5090 C   0  0  0  0  0  0  0  0  0  0  0  0
   -8.2846    8.7289   -9.9848 N   0  0  0  0  0  0  0  0  0  0  0  0
   -8.4176    8.8659  -11.2967 N   0  0  0  0  0  0  0  0  0  0  0  0
   -7.3368    9.8884   -8.0257 C   0  0  0  0  0  0  0  0  0  0  0  0
   -4.4023   13.6480  -11.4578 N   0  0  0  0  0  0  0  0  0  0  0  0
   -3.4623   14.7747  -11.4948 C   0  0  0  0  0  0  0  0  0  0  0  0
   -5.5331   13.6158  -12.1961 C   0  0  0  0  0  0  0  0  0  0  0  0
   -5.8776   14.5022  -12.9731 O   0  0  0  0  0  0  0  0  0  0  0  0
   -5.9585   10.4860   -7.7354 C   0  0  0  0  0  0  0  0  0  0  0  0
   -5.8494   11.7555   -7.1596 C   0  0  0  0  0  0  0  0  0  0  0  0
   -4.5968   12.3068   -6.9148 C   0  0  0  0  0  0  0  0  0  0  0  0
   -3.4468   11.5860   -7.2370 C   0  0  0  0  0  0  0  0  0  0  0  0
   -3.5513   10.3089   -7.8057 C   0  0  0  0  0  0  0  0  0  0  0  0
   -4.8090    9.7654   -8.0523 C   0  0  0  0  0  0  0  0  0  0  0  0
   -2.0901   12.1669   -6.9801 C   0  0  0  0  0  0  0  0  0  0  0  0
   -1.7479   13.4121   -6.4872 C   0  0  0  0  0  0  0  0  0  0  0  0
   -0.3990   13.4663   -6.4328 N   0  0  0  0  0  0  0  0  0  0  0  0
    0.1869   12.3691   -6.8386 N   0  0  0  0  0  0  0  0  0  0  0  0
   -0.8034   11.5628   -7.1902 C   0  0  0  0  0  0  0  0  0  0  0  0
    0.4389   14.5894   -5.9640 C   0  0  0  0  0  0  0  0  0  0  0  0
    1.5042   14.2139   -4.8744 C   0  0  0  0  0  0  0  0  0  0  0  0
    2.6302   13.6295   -5.4977 O   0  0  0  0  0  0  0  0  0  0  0  0
    0.9501   13.1612   -3.9053 C   0  0  0  0  0  0  0  0  0  0  0  0
    2.0179   15.4484   -4.1037 C   0  0  0  0  0  0  0  0  0  0  0  0
   -6.0641   12.2854   -9.8782 H   0  0  0  0  0  0  0  0  0  0  0  0
   -8.1913   10.1279  -13.8857 H   0  0  0  0  0  0  0  0  0  0  0  0
   -6.8965   12.2561  -14.0981 H   0  0  0  0  0  0  0  0  0  0  0  0
   -6.3233   10.0335  -10.7537 H   0  0  0  0  0  0  0  0  0  0  0  0
   -8.0357    9.5970   -7.2556 H   0  0  0  0  0  0  0  0  0  0  0  0
   -2.6221   14.5745  -10.8136 H   0  0  0  0  0  0  0  0  0  0  0  0
   -3.0817   14.9010  -12.5191 H   0  0  0  0  0  0  0  0  0  0  0  0
   -3.9787   15.6934  -11.1797 H   0  0  0  0  0  0  0  0  0  0  0  0
   -5.2393   15.2056  -12.9549 H   0  0  0  0  0  0  0  0  0  0  0  0
   -6.7407   12.3094   -6.9043 H   0  0  0  0  0  0  0  0  0  0  0  0
   -4.5143   13.2904   -6.4764 H   0  0  0  0  0  0  0  0  0  0  0  0
   -3.4456   11.1385   -6.2321 H   0  0  0  0  0  0  0  0  0  0  0  0
   -2.6607    9.7496   -8.0512 H   0  0  0  0  0  0  0  0  0  0  0  0
   -4.8939    8.7820   -8.4907 H   0  0  0  0  0  0  0  0  0  0  0  0
   -2.4321   14.1965   -6.1989 H   0  0  0  0  0  0  0  0  0  0  0  0
   -0.6606   10.5688   -7.5878 H   0  0  0  0  0  0  0  0  0  0  0  0
    0.9713   15.0036   -6.8329 H   0  0  0  0  0  0  0  0  0  0  0  0
   -0.2256   15.3572   -5.5409 H   0  0  0  0  0  0  0  0  0  0  0  0
    3.2752   13.4021   -4.8384 H   0  0  0  0  0  0  0  0  0  0  0  0
    1.7145   12.9160   -3.1533 H   0  0  0  0  0  0  0  0  0  0  0  0
    0.0563   13.5598   -3.4030 H   0  0  0  0  0  0  0  0  0  0  0  0
    0.6818   12.2530   -4.4649 H   0  0  0  0  0  0  0  0  0  0  0  0
    2.7591   15.1317   -3.3552 H   0  0  0  0  0  0  0  0  0  0  0  0
    2.4859   16.1517   -4.8082 H   0  0  0  0  0  0  0  0  0  0  0  0
    1.1747   15.9421   -3.5985 H   0  0  0  0  0  0  0  0  0  0  0  0
  1  2  2  0  0  0  0
  1  4  1  0  0  0  0
  1 13  1  0  0  0  0
  2  6  1  0  0  0  0
  3  4  2  0  0  0  0
  3  5  1  0  0  0  0
  5  6  1  0  0  0  0
  5  9  2  0  0  0  0
  6  7  1  0  0  0  0
  7  8  2  0  0  0  0
  7 10  1  0  0  0  0
  8  9  1  0  0  0  0
 10 15  2  0  0  0  0
 11 12  1  0  0  0  0
 11 13  2  0  0  0  0
 13 14  1  0  0  0  0
 15 16  1  0  0  0  0
 15 20  1  0  0  0  0
 16 17  2  0  0  0  0
 17 18  1  0  0  0  0
 18 19  1  0  0  0  0
 18 21  1  0  0  0  0
 19 20  2  0  0  0  0
 21 22  2  0  0  0  0
 21 25  1  0  0  0  0
 22 23  1  0  0  0  0
 23 24  1  0  0  0  0
 23 26  1  0  0  0  0
 24 25  2  0  0  0  0
 26 27  1  0  0  0  0
 27 28  1  0  0  0  0
 27 29  1  0  0  0  0
 27 30  1  0  0  0  0
  2 31  1  0  0  0  0
  3 32  1  0  0  0  0
  4 33  1  0  0  0  0
  6 34  1  0  0  0  0
 10 35  1  0  0  0  0
 12 36  1  0  0  0  0
 12 37  1  0  0  0  0
 12 38  1  0  0  0  0
 14 39  1  0  0  0  0
 16 40  1  0  0  0  0
 17 41  1  0  0  0  0
 18 42  1  0  0  0  0
 19 43  1  0  0  0  0
 20 44  1  0  0  0  0
 22 45  1  0  0  0  0
 25 46  1  0  0  0  0
 26 47  1  0  0  0  0
 26 48  1  0  0  0  0
 28 49  1  0  0  0  0
 29 50  1  0  0  0  0
 29 51  1  0  0  0  0
 29 52  1  0  0  0  0
 30 53  1  0  0  0  0
 30 54  1  0  0  0  0
 30 55  1  0  0  0  0
M  END
> <Name>
20

> <IC50[uM]>
0.016

$$$$
20
  -OEChem-05192314333D
 Structure written by MMmdl.
 55 58  0     0  0  0  0  0  0999 V2000
   -6.3740   12.3524  -12.0161 C   0  0  0  0  0  0  0  0  0  0  0  0
   -6.5100   11.8065  -10.7374 C   0  0  0  0  0  0  0  0  0  0  0  0
   -7.7222   10.5841  -13.0265 C   0  0  0  0  0  0  0  0  0  0  0  0
   -6.9887   11.7756  -13.1353 C   0  0  0  0  0  0  0  0  0  0  0  0
   -7.8163   10.0177  -11.7563 C   0  0  0  0  0  0  0  0  0  0  0  0
   -7.2425   10.6185  -10.6022 C   0  0  0  0  0  0  0  0  0  0  0  0
   -7.6172    9.7487   -9.5090 C   0  0  0  0  0  0  0  0  0  0  0  0
   -8.2846    8.7289   -9.9848 N   0  0  0  0  0  0  0  0  0  0  0  0
   -8.4176    8.8659  -11.2967 N   0  0  0  0  0  0  0  0  0  0  0  0
   -7.3368    9.8884   -8.0257 C   0  0  0  0  0  0  0  0  0  0  0  0
   -4.4023   13.6480  -11.4578 N   0  0  0  0  0  0  0  0  0  0  0  0
   -3.4623   14.7747  -11.4948 C   0  0  0  0  0  0  0  0  0  0  0  0
   -5.5331   13.6158  -12.1961 C   0  0  0  0  0  0  0  0  0  0  0  0
   -5.8776   14.5022  -12.9731 O   0  0  0  0  0  0  0  0  0  0  0  0
   -5.9585   10.4860   -7.7354 C   0  0  0  0  0  0  0  0  0  0  0  0
   -5.8494   11.7555   -7.1596 C   0  0  0  0  0  0  0  0  0  0  0  0
   -4.5968   12.3068   -6.9148 C   0  0  0  0  0  0  0  0  0  0  0  0
   -3.4468   11.5860   -7.2370 C   0  0  0  0  0  0  0  0  0  0  0  0
   -3.5513   10.3089   -7.8057 C   0  0  0  0  0  0  0  0  0  0  0  0
   -4.8090    9.7654   -8.0523 C   0  0  0  0  0  0  0  0  0  0  0  0
   -2.0901   12.1669   -6.9801 C   0  0  0  0  0  0  0  0  0  0  0  0
   -1.7479   13.4121   -6.4872 C   0  0  0  0  0  0  0  0  0  0  0  0
   -0.3990   13.4663   -6.4328 N   0  0  0  0  0  0  0  0  0  0  0  0
    0.1869   12.3691   -6.8386 N   0  0  0  0  0  0  0  0  0  0  0  0
   -0.8034   11.5628   -7.1902 C   0  0  0  0  0  0  0  0  0  0  0  0
    0.4389   14.5894   -5.9640 C   0  0  0  0  0  0  0  0  0  0  0  0
    1.5042   14.2139   -4.8744 C   0  0  0  0  0  0  0  0  0  0  0  0
    2.6302   13.6295   -5.4977 O   0  0  0  0  0  0  0  0  0  0  0  0
    0.9501   13.1612   -3.9053 C   0  0  0  0  0  0  0  0  0  0  0  0
    2.0179   15.4484   -4.1037 C   0  0  0  0  0  0  0  0  0  0  0  0
   -6.0641   12.2854   -9.8782 H   0  0  0  0  0  0  0  0  0  0  0  0
   -8.7448   10.7898  -13.3757 H   0  0  0  0  0  0  0  0  0  0  0  0
   -7.2513    9.8419  -13.6878 H   0  0  0  0  0  0  0  0  0  0  0  0
   -6.8965   12.2561  -14.0981 H   0  0  0  0  0  0  0  0  0  0  0  0
   -8.0357    9.5970   -7.2556 H   0  0  0  0  0  0  0  0  0  0  0  0
   -2.6221   14.5745  -10.8136 H   0  0  0  0  0  0  0  0  0  0  0  0
   -3.0817   14.9010  -12.5191 H   0  0  0  0  0  0  0  0  0  0  0  0
   -3.9787   15.6934  -11.1797 H   0  0  0  0  0  0  0  0  0  0  0  0
   -5.2393   15.2056  -12.9549 H   0  0  0  0  0  0  0  0  0  0  0  0
   -6.7407   12.3094   -6.9043 H   0  0  0  0  0  0  0  0  0  0  0  0
   -4.5143   13.2904   -6.4764 H   0  0  0  0  0  0  0  0  0  0  0  0
   -3.4456   11.1385   -6.2321 H   0  0  0  0  0  0  0  0  0  0  0  0
   -2.6607    9.7496   -8.0512 H   0  0  0  0  0  0  0  0  0  0  0  0
   -4.8939    8.7820   -8.4907 H   0  0  0  0  0  0  0  0  0  0  0  0
   -2.4321   14.1965   -6.1989 H   0  0  0  0  0  0  0  0  0  0  0  0
   -0.6606   10.5688   -7.5878 H   0  0  0  0  0  0  0  0  0  0  0  0
    0.9713   15.0036   -6.8329 H   0  0  0  0  0  0  0  0  0  0  0  0
   -0.2256   15.3572   -5.5409 H   0  0  0  0  0  0  0  0  0  0  0  0
    3.2752   13.4021   -4.8384 H   0  0  0  0  0  0  0  0  0  0  0  0
    1.7145   12.9160   -3.1533 H   0  0  0  0  0  0  0  0  0  0  0  0
    0.0563   13.5598   -3.4030 H   0  0  0  0  0  0  0  0  0  0  0  0
    0.6818   12.2530   -4.4649 H   0  0  0  0  0  0  0  0  0  0  0  0
    2.7591   15.1317   -3.3552 H   0  0  0  0  0  0  0  0  0  0  0  0
    2.4859   16.1517   -4.8082 H   0  0  0  0  0  0  0  0  0  0  0  0
    1.1747   15.9421   -3.5985 H   0  0  0  0  0  0  0  0  0  0  0  0
  1  2  1  0  0  0  0
  1  4  2  0  0  0  0
  1 13  1  0  0  0  0
  2  6  2  0  0  0  0
  3  4  1  0  0  0  0
  3  5  1  0  0  0  0
  5  6  1  0  0  0  0
  5  9  2  0  0  0  0
  6  7  1  0  0  0  0
  7  8  2  0  0  0  0
  7 10  1  0  0  0  0
  8  9  1  0  0  0  0
 10 15  2  0  0  0  0
 11 12  1  0  0  0  0
 11 13  2  0  0  0  0
 13 14  1  0  0  0  0
 15 16  1  0  0  0  0
 15 20  1  0  0  0  0
 16 17  2  0  0  0  0
 17 18  1  0  0  0  0
 18 19  1  0  0  0  0
 18 21  1  0  0  0  0
 19 20  2  0  0  0  0
 21 22  2  0  0  0  0
 21 25  1  0  0  0  0
 22 23  1  0  0  0  0
 23 24  1  0  0  0  0
 23 26  1  0  0  0  0
 24 25  2  0  0  0  0
 26 27  1  0  0  0  0
 27 28  1  0  0  0  0
 27 29  1  0  0  0  0
 27 30  1  0  0  0  0
  2 31  1  0  0  0  0
  3 32  1  0  0  0  0
  3 33  1  0  0  0  0
  4 34  1  0  0  0  0
 10 35  1  0  0  0  0
 12 36  1  0  0  0  0
 12 37  1  0  0  0  0
 12 38  1  0  0  0  0
 14 39  1  0  0  0  0
 16 40  1  0  0  0  0
 17 41  1  0  0  0  0
 18 42  1  0  0  0  0
 19 43  1  0  0  0  0
 20 44  1  0  0  0  0
 22 45  1  0  0  0  0
 25 46  1  0  0  0  0
 26 47  1  0  0  0  0
 26 48  1  0  0  0  0
 28 49  1  0  0  0  0
 29 50  1  0  0  0  0
 29 51  1  0  0  0  0
 29 52  1  0  0  0  0
 30 53  1  0  0  0  0
 30 54  1  0  0  0  0
 30 55  1  0  0  0  0
M  END
> <Name>
20

> <IC50[uM]>
0.016

$$$$
20
  -OEChem-05192314333D
 Structure written by MMmdl.
 55 58  0     1  0  0  0  0  0999 V2000
   -6.3740   12.3524  -12.0161 C   0  0  3  0  0  0  0  0  0  0  0  0
   -6.5100   11.8065  -10.7374 C   0  0  0  0  0  0  0  0  0  0  0  0
   -7.7222   10.5841  -13.0265 C   0  0  0  0  0  0  0  0  0  0  0  0
   -6.9887   11.7756  -13.1353 C   0  0  0  0  0  0  0  0  0  0  0  0
   -7.8163   10.0177  -11.7563 C   0  0  0  0  0  0  0  0  0  0  0  0
   -7.2425   10.6185  -10.6022 C   0  0  0  0  0  0  0  0  0  0  0  0
   -7.6172    9.7487   -9.5090 C   0  0  0  0  0  0  0  0  0  0  0  0
   -8.2846    8.7289   -9.9848 N   0  0  0  0  0  0  0  0  0  0  0  0
   -8.4176    8.8659  -11.2967 N   0  0  0  0  0  0  0  0  0  0  0  0
   -7.3368    9.8884   -8.0257 C   0  0  0  0  0  0  0  0  0  0  0  0
   -4.4023   13.6480  -11.4578 N   0  0  0  0  0  0  0  0  0  0  0  0
   -3.4623   14.7747  -11.4948 C   0  0  0  0  0  0  0  0  0  0  0  0
   -5.5331   13.6158  -12.1961 C   0  0  0  0  0  0  0  0  0  0  0  0
   -5.8776   14.5022  -12.9731 O   0  0  0  0  0  0  0  0  0  0  0  0
   -5.9585   10.4860   -7.7354 C   0  0  0  0  0  0  0  0  0  0  0  0
   -5.8494   11.7555   -7.1596 C   0  0  0  0  0  0  0  0  0  0  0  0
   -4.5968   12.3068   -6.9148 C   0  0  0  0  0  0  0  0  0  0  0  0
   -3.4468   11.5860   -7.2370 C   0  0  0  0  0  0  0  0  0  0  0  0
   -3.5513   10.3089   -7.8057 C   0  0  0  0  0  0  0  0  0  0  0  0
   -4.8090    9.7654   -8.0523 C   0  0  0  0  0  0  0  0  0  0  0  0
   -2.0901   12.1669   -6.9801 C   0  0  0  0  0  0  0  0  0  0  0  0
   -1.7479   13.4121   -6.4872 C   0  0  0  0  0  0  0  0  0  0  0  0
   -0.3990   13.4663   -6.4328 N   0  0  0  0  0  0  0  0  0  0  0  0
    0.1869   12.3691   -6.8386 N   0  0  0  0  0  0  0  0  0  0  0  0
   -0.8034   11.5628   -7.1902 C   0  0  0  0  0  0  0  0  0  0  0  0
    0.4389   14.5894   -5.9640 C   0  0  0  0  0  0  0  0  0  0  0  0
    1.5042   14.2139   -4.8744 C   0  0  0  0  0  0  0  0  0  0  0  0
    2.6302   13.6295   -5.4977 O   0  0  0  0  0  0  0  0  0  0  0  0
    0.9501   13.1612   -3.9053 C   0  0  0  0  0  0  0  0  0  0  0  0
    2.0179   15.4484   -4.1037 C   0  0  0  0  0  0  0  0  0  0  0  0
   -5.4811   11.7330  -12.1864 H   0  0  0  0  0  0  0  0  0  0  0  0
   -6.0641   12.2854   -9.8782 H   0  0  0  0  0  0  0  0  0  0  0  0
   -8.1913   10.1279  -13.8857 H   0  0  0  0  0  0  0  0  0  0  0  0
   -6.8965   12.2561  -14.0981 H   0  0  0  0  0  0  0  0  0  0  0  0
   -8.0357    9.5970   -7.2556 H   0  0  0  0  0  0  0  0  0  0  0  0
   -2.6221   14.5745  -10.8136 H   0  0  0  0  0  0  0  0  0  0  0  0
   -3.0817   14.9010  -12.5191 H   0  0  0  0  0  0  0  0  0  0  0  0
   -3.9787   15.6934  -11.1797 H   0  0  0  0  0  0  0  0  0  0  0  0
   -5.2393   15.2056  -12.9549 H   0  0  0  0  0  0  0  0  0  0  0  0
   -6.7407   12.3094   -6.9043 H   0  0  0  0  0  0  0  0  0  0  0  0
   -4.5143   13.2904   -6.4764 H   0  0  0  0  0  0  0  0  0  0  0  0
   -2.6607    9.7496   -8.0512 H   0  0  0  0  0  0  0  0  0  0  0  0
   -4.8619    8.8217   -7.4897 H   0  0  0  0  0  0  0  0  0  0  0  0
   -4.8560    9.5526   -9.1305 H   0  0  0  0  0  0  0  0  0  0  0  0
   -2.4321   14.1965   -6.1989 H   0  0  0  0  0  0  0  0  0  0  0  0
   -0.6606   10.5688   -7.5878 H   0  0  0  0  0  0  0  0  0  0  0  0
    0.9713   15.0036   -6.8329 H   0  0  0  0  0  0  0  0  0  0  0  0
   -0.2256   15.3572   -5.5409 H   0  0  0  0  0  0  0  0  0  0  0  0
    3.2752   13.4021   -4.8384 H   0  0  0  0  0  0  0  0  0  0  0  0
    1.7145   12.9160   -3.1533 H   0  0  0  0  0  0  0  0  0  0  0  0
    0.0563   13.5598   -3.4030 H   0  0  0  0  0  0  0  0  0  0  0  0
    0.6818   12.2530   -4.4649 H   0  0  0  0  0  0  0  0  0  0  0  0
    2.7591   15.1317   -3.3552 H   0  0  0  0  0  0  0  0  0  0  0  0
    2.4859   16.1517   -4.8082 H   0  0  0  0  0  0  0  0  0  0  0  0
    1.1747   15.9421   -3.5985 H   0  0  0  0  0  0  0  0  0  0  0  0
  1  2  1  0  0  0  0
  1  4  1  0  0  0  0
  1 13  1  0  0  0  0
  2  6  2  0  0  0  0
  3  4  2  0  0  0  0
  3  5  1  0  0  0  0
  5  6  1  0  0  0  0
  5  9  2  0  0  0  0
  6  7  1  0  0  0  0
  7  8  2  0  0  0  0
  7 10  1  0  0  0  0
  8  9  1  0  0  0  0
 10 15  2  3  0  0  0
 11 12  1  0  0  0  0
 11 13  2  0  0  0  0
 13 14  1  0  0  0  0
 15 16  1  0  0  0  0
 15 20  1  0  0  0  0
 16 17  2  0  0  0  0
 17 18  1  0  0  0  0
 18 19  2  0  0  0  0
 18 21  1  0  0  0  0
 19 20  1  0  0  0  0
 21 22  2  0  0  0  0
 21 25  1  0  0  0  0
 22 23  1  0  0  0  0
 23 24  1  0  0  0  0
 23 26  1  0  0  0  0
 24 25  2  0  0  0  0
 26 27  1  0  0  0  0
 27 28  1  0  0  0  0
 27 29  1  0  0  0  0
 27 30  1  0  0  0  0
  1 31  1  0  0  0  0
  2 32  1  0  0  0  0
  3 33  1  0  0  0  0
  4 34  1  0  0  0  0
 10 35  1  0  0  0  0
 12 36  1  0  0  0  0
 12 37  1  0  0  0  0
 12 38  1  0  0  0  0
 14 39  1  0  0  0  0
 16 40  1  0  0  0  0
 17 41  1  0  0  0  0
 19 42  1  0  0  0  0
 20 43  1  0  0  0  0
 20 44  1  0  0  0  0
 22 45  1  0  0  0  0
 25 46  1  0  0  0  0
 26 47  1  0  0  0  0
 26 48  1  0  0  0  0
 28 49  1  0  0  0  0
 29 50  1  0  0  0  0
 29 51  1  0  0  0  0
 29 52  1  0  0  0  0
 30 53  1  0  0  0  0
 30 54  1  0  0  0  0
 30 55  1  0  0  0  0
M  END
> <Name>
20

> <IC50[uM]>
0.016

$$$$
20
  -OEChem-05192314333D
 Structure written by MMmdl.
 55 58  0     1  0  0  0  0  0999 V2000
   -6.3740   12.3524  -12.0161 C   0  0  0  0  0  0  0  0  0  0  0  0
   -6.5100   11.8065  -10.7374 C   0  0  0  0  0  0  0  0  0  0  0  0
   -7.7222   10.5841  -13.0265 C   0  0  0  0  0  0  0  0  0  0  0  0
   -6.9887   11.7756  -13.1353 C   0  0  0  0  0  0  0  0  0  0  0  0
   -7.8163   10.0177  -11.7563 C   0  0  0  0  0  0  0  0  0  0  0  0
   -7.2425   10.6185  -10.6022 C   0  0  3  0  0  0  0  0  0  0  0  0
   -7.6172    9.7487   -9.5090 C   0  0  0  0  0  0  0  0  0  0  0  0
   -8.2846    8.7289   -9.9848 N   0  0  0  0  0  0  0  0  0  0  0  0
   -8.4176    8.8659  -11.2967 N   0  0  0  0  0  0  0  0  0  0  0  0
   -7.3368    9.8884   -8.0257 C   0  0  0  0  0  0  0  0  0  0  0  0
   -4.4023   13.6480  -11.4578 N   0  0  0  0  0  0  0  0  0  0  0  0
   -3.4623   14.7747  -11.4948 C   0  0  0  0  0  0  0  0  0  0  0  0
   -5.5331   13.6158  -12.1961 C   0  0  0  0  0  0  0  0  0  0  0  0
   -5.8776   14.5022  -12.9731 O   0  0  0  0  0  0  0  0  0  0  0  0
   -5.9585   10.4860   -7.7354 C   0  0  0  0  0  0  0  0  0  0  0  0
   -5.8494   11.7555   -7.1596 C   0  0  0  0  0  0  0  0  0  0  0  0
   -4.5968   12.3068   -6.9148 C   0  0  0  0  0  0  0  0  0  0  0  0
   -3.4468   11.5860   -7.2370 C   0  0  0  0  0  0  0  0  0  0  0  0
   -3.5513   10.3089   -7.8057 C   0  0  0  0  0  0  0  0  0  0  0  0
   -4.8090    9.7654   -8.0523 C   0  0  0  0  0  0  0  0  0  0  0  0
   -2.0901   12.1669   -6.9801 C   0  0  0  0  0  0  0  0  0  0  0  0
   -1.7479   13.4121   -6.4872 C   0  0  0  0  0  0  0  0  0  0  0  0
   -0.3990   13.4663   -6.4328 N   0  0  0  0  0  0  0  0  0  0  0  0
    0.1869   12.3691   -6.8386 N   0  0  0  0  0  0  0  0  0  0  0  0
   -0.8034   11.5628   -7.1902 C   0  0  0  0  0  0  0  0  0  0  0  0
    0.4389   14.5894   -5.9640 C   0  0  0  0  0  0  0  0  0  0  0  0
    1.5042   14.2139   -4.8744 C   0  0  0  0  0  0  0  0  0  0  0  0
    2.6302   13.6295   -5.4977 O   0  0  0  0  0  0  0  0  0  0  0  0
    0.9501   13.1612   -3.9053 C   0  0  0  0  0  0  0  0  0  0  0  0
    2.0179   15.4484   -4.1037 C   0  0  0  0  0  0  0  0  0  0  0  0
   -6.0641   12.2854   -9.8782 H   0  0  0  0  0  0  0  0  0  0  0  0
   -8.1913   10.1279  -13.8857 H   0  0  0  0  0  0  0  0  0  0  0  0
   -6.8965   12.2561  -14.0981 H   0  0  0  0  0  0  0  0  0  0  0  0
   -6.3233   10.0335  -10.7537 H   0  0  0  0  0  0  0  0  0  0  0  0
   -8.0357    9.5970   -7.2556 H   0  0  0  0  0  0  0  0  0  0  0  0
   -2.6221   14.5745  -10.8136 H   0  0  0  0  0  0  0  0  0  0  0  0
   -3.0817   14.9010  -12.5191 H   0  0  0  0  0  0  0  0  0  0  0  0
   -3.9787   15.6934  -11.1797 H   0  0  0  0  0  0  0  0  0  0  0  0
   -5.2393   15.2056  -12.9549 H   0  0  0  0  0  0  0  0  0  0  0  0
   -6.7407   12.3094   -6.9043 H   0  0  0  0  0  0  0  0  0  0  0  0
   -4.5143   13.2904   -6.4764 H   0  0  0  0  0  0  0  0  0  0  0  0
   -2.6607    9.7496   -8.0512 H   0  0  0  0  0  0  0  0  0  0  0  0
   -4.8619    8.8217   -7.4897 H   0  0  0  0  0  0  0  0  0  0  0  0
   -4.8560    9.5526   -9.1305 H   0  0  0  0  0  0  0  0  0  0  0  0
   -2.4321   14.1965   -6.1989 H   0  0  0  0  0  0  0  0  0  0  0  0
   -0.6606   10.5688   -7.5878 H   0  0  0  0  0  0  0  0  0  0  0  0
    0.9713   15.0036   -6.8329 H   0  0  0  0  0  0  0  0  0  0  0  0
   -0.2256   15.3572   -5.5409 H   0  0  0  0  0  0  0  0  0  0  0  0
    3.2752   13.4021   -4.8384 H   0  0  0  0  0  0  0  0  0  0  0  0
    1.7145   12.9160   -3.1533 H   0  0  0  0  0  0  0  0  0  0  0  0
    0.0563   13.5598   -3.4030 H   0  0  0  0  0  0  0  0  0  0  0  0
    0.6818   12.2530   -4.4649 H   0  0  0  0  0  0  0  0  0  0  0  0
    2.7591   15.1317   -3.3552 H   0  0  0  0  0  0  0  0  0  0  0  0
    2.4859   16.1517   -4.8082 H   0  0  0  0  0  0  0  0  0  0  0  0
    1.1747   15.9421   -3.5985 H   0  0  0  0  0  0  0  0  0  0  0  0
  1  2  2  0  0  0  0
  1  4  1  0  0  0  0
  1 13  1  0  0  0  0
  2  6  1  0  0  0  0
  3  4  2  0  0  0  0
  3  5  1  0  0  0  0
  5  6  1  0  0  0  0
  5  9  2  0  0  0  0
  6  7  1  0  0  0  0
  7  8  2  0  0  0  0
  7 10  1  0  0  0  0
  8  9  1  0  0  0  0
 10 15  2  3  0  0  0
 11 12  1  0  0  0  0
 11 13  2  0  0  0  0
 13 14  1  0  0  0  0
 15 16  1  0  0  0  0
 15 20  1  0  0  0  0
 16 17  2  0  0  0  0
 17 18  1  0  0  0  0
 18 19  2  0  0  0  0
 18 21  1  0  0  0  0
 19 20  1  0  0  0  0
 21 22  2  0  0  0  0
 21 25  1  0  0  0  0
 22 23  1  0  0  0  0
 23 24  1  0  0  0  0
 23 26  1  0  0  0  0
 24 25  2  0  0  0  0
 26 27  1  0  0  0  0
 27 28  1  0  0  0  0
 27 29  1  0  0  0  0
 27 30  1  0  0  0  0
  2 31  1  0  0  0  0
  3 32  1  0  0  0  0
  4 33  1  0  0  0  0
  6 34  1  0  0  0  0
 10 35  1  0  0  0  0
 12 36  1  0  0  0  0
 12 37  1  0  0  0  0
 12 38  1  0  0  0  0
 14 39  1  0  0  0  0
 16 40  1  0  0  0  0
 17 41  1  0  0  0  0
 19 42  1  0  0  0  0
 20 43  1  0  0  0  0
 20 44  1  0  0  0  0
 22 45  1  0  0  0  0
 25 46  1  0  0  0  0
 26 47  1  0  0  0  0
 26 48  1  0  0  0  0
 28 49  1  0  0  0  0
 29 50  1  0  0  0  0
 29 51  1  0  0  0  0
 29 52  1  0  0  0  0
 30 53  1  0  0  0  0
 30 54  1  0  0  0  0
 30 55  1  0  0  0  0
M  END
> <Name>
20

> <IC50[uM]>
0.016

$$$$
20
  -OEChem-05192314333D
 Structure written by MMmdl.
 55 58  0     0  0  0  0  0  0999 V2000
   -6.3740   12.3524  -12.0161 C   0  0  0  0  0  0  0  0  0  0  0  0
   -6.5100   11.8065  -10.7374 C   0  0  0  0  0  0  0  0  0  0  0  0
   -7.7222   10.5841  -13.0265 C   0  0  0  0  0  0  0  0  0  0  0  0
   -6.9887   11.7756  -13.1353 C   0  0  0  0  0  0  0  0  0  0  0  0
   -7.8163   10.0177  -11.7563 C   0  0  0  0  0  0  0  0  0  0  0  0
   -7.2425   10.6185  -10.6022 C   0  0  0  0  0  0  0  0  0  0  0  0
   -7.6172    9.7487   -9.5090 C   0  0  0  0  0  0  0  0  0  0  0  0
   -8.2846    8.7289   -9.9848 N   0  0  0  0  0  0  0  0  0  0  0  0
   -8.4176    8.8659  -11.2967 N   0  0  0  0  0  0  0  0  0  0  0  0
   -7.3368    9.8884   -8.0257 C   0  0  0  0  0  0  0  0  0  0  0  0
   -4.4023   13.6480  -11.4578 N   0  0  0  0  0  0  0  0  0  0  0  0
   -3.4623   14.7747  -11.4948 C   0  0  0  0  0  0  0  0  0  0  0  0
   -5.5331   13.6158  -12.1961 C   0  0  0  0  0  0  0  0  0  0  0  0
   -5.8776   14.5022  -12.9731 O   0  0  0  0  0  0  0  0  0  0  0  0
   -5.9585   10.4860   -7.7354 C   0  0  0  0  0  0  0  0  0  0  0  0
   -5.8494   11.7555   -7.1596 C   0  0  0  0  0  0  0  0  0  0  0  0
   -4.5968   12.3068   -6.9148 C   0  0  0  0  0  0  0  0  0  0  0  0
   -3.4468   11.5860   -7.2370 C   0  0  0  0  0  0  0  0  0  0  0  0
   -3.5513   10.3089   -7.8057 C   0  0  0  0  0  0  0  0  0  0  0  0
   -4.8090    9.7654   -8.0523 C   0  0  0  0  0  0  0  0  0  0  0  0
   -2.0901   12.1669   -6.9801 C   0  0  0  0  0  0  0  0  0  0  0  0
   -1.7479   13.4121   -6.4872 C   0  0  0  0  0  0  0  0  0  0  0  0
   -0.3990   13.4663   -6.4328 N   0  0  0  0  0  0  0  0  0  0  0  0
    0.1869   12.3691   -6.8386 N   0  0  0  0  0  0  0  0  0  0  0  0
   -0.8034   11.5628   -7.1902 C   0  0  0  0  0  0  0  0  0  0  0  0
    0.4389   14.5894   -5.9640 C   0  0  0  0  0  0  0  0  0  0  0  0
    1.5042   14.2139   -4.8744 C   0  0  0  0  0  0  0  0  0  0  0  0
    2.6302   13.6295   -5.4977 O   0  0  0  0  0  0  0  0  0  0  0  0
    0.9501   13.1612   -3.9053 C   0  0  0  0  0  0  0  0  0  0  0  0
    2.0179   15.4484   -4.1037 C   0  0  0  0  0  0  0  0  0  0  0  0
   -6.0641   12.2854   -9.8782 H   0  0  0  0  0  0  0  0  0  0  0  0
   -8.7448   10.7898  -13.3757 H   0  0  0  0  0  0  0  0  0  0  0  0
   -7.2513    9.8419  -13.6878 H   0  0  0  0  0  0  0  0  0  0  0  0
   -6.8965   12.2561  -14.0981 H   0  0  0  0  0  0  0  0  0  0  0  0
   -8.0357    9.5970   -7.2556 H   0  0  0  0  0  0  0  0  0  0  0  0
   -2.6221   14.5745  -10.8136 H   0  0  0  0  0  0  0  0  0  0  0  0
   -3.0817   14.9010  -12.5191 H   0  0  0  0  0  0  0  0  0  0  0  0
   -3.9787   15.6934  -11.1797 H   0  0  0  0  0  0  0  0  0  0  0  0
   -5.2393   15.2056  -12.9549 H   0  0  0  0  0  0  0  0  0  0  0  0
   -6.7407   12.3094   -6.9043 H   0  0  0  0  0  0  0  0  0  0  0  0
   -4.5143   13.2904   -6.4764 H   0  0  0  0  0  0  0  0  0  0  0  0
   -2.6607    9.7496   -8.0512 H   0  0  0  0  0  0  0  0  0  0  0  0
   -4.8619    8.8217   -7.4897 H   0  0  0  0  0  0  0  0  0  0  0  0
   -4.8560    9.5526   -9.1305 H   0  0  0  0  0  0  0  0  0  0  0  0
   -2.4321   14.1965   -6.1989 H   0  0  0  0  0  0  0  0  0  0  0  0
   -0.6606   10.5688   -7.5878 H   0  0  0  0  0  0  0  0  0  0  0  0
    0.9713   15.0036   -6.8329 H   0  0  0  0  0  0  0  0  0  0  0  0
   -0.2256   15.3572   -5.5409 H   0  0  0  0  0  0  0  0  0  0  0  0
    3.2752   13.4021   -4.8384 H   0  0  0  0  0  0  0  0  0  0  0  0
    1.7145   12.9160   -3.1533 H   0  0  0  0  0  0  0  0  0  0  0  0
    0.0563   13.5598   -3.4030 H   0  0  0  0  0  0  0  0  0  0  0  0
    0.6818   12.2530   -4.4649 H   0  0  0  0  0  0  0  0  0  0  0  0
    2.7591   15.1317   -3.3552 H   0  0  0  0  0  0  0  0  0  0  0  0
    2.4859   16.1517   -4.8082 H   0  0  0  0  0  0  0  0  0  0  0  0
    1.1747   15.9421   -3.5985 H   0  0  0  0  0  0  0  0  0  0  0  0
  1  2  1  0  0  0  0
  1  4  2  0  0  0  0
  1 13  1  0  0  0  0
  2  6  2  0  0  0  0
  3  4  1  0  0  0  0
  3  5  1  0  0  0  0
  5  6  1  0  0  0  0
  5  9  2  0  0  0  0
  6  7  1  0  0  0  0
  7  8  2  0  0  0  0
  7 10  1  0  0  0  0
  8  9  1  0  0  0  0
 10 15  2  3  0  0  0
 11 12  1  0  0  0  0
 11 13  2  0  0  0  0
 13 14  1  0  0  0  0
 15 16  1  0  0  0  0
 15 20  1  0  0  0  0
 16 17  2  0  0  0  0
 17 18  1  0  0  0  0
 18 19  2  0  0  0  0
 18 21  1  0  0  0  0
 19 20  1  0  0  0  0
 21 22  2  0  0  0  0
 21 25  1  0  0  0  0
 22 23  1  0  0  0  0
 23 24  1  0  0  0  0
 23 26  1  0  0  0  0
 24 25  2  0  0  0  0
 26 27  1  0  0  0  0
 27 28  1  0  0  0  0
 27 29  1  0  0  0  0
 27 30  1  0  0  0  0
  2 31  1  0  0  0  0
  3 32  1  0  0  0  0
  3 33  1  0  0  0  0
  4 34  1  0  0  0  0
 10 35  1  0  0  0  0
 12 36  1  0  0  0  0
 12 37  1  0  0  0  0
 12 38  1  0  0  0  0
 14 39  1  0  0  0  0
 16 40  1  0  0  0  0
 17 41  1  0  0  0  0
 19 42  1  0  0  0  0
 20 43  1  0  0  0  0
 20 44  1  0  0  0  0
 22 45  1  0  0  0  0
 25 46  1  0  0  0  0
 26 47  1  0  0  0  0
 26 48  1  0  0  0  0
 28 49  1  0  0  0  0
 29 50  1  0  0  0  0
 29 51  1  0  0  0  0
 29 52  1  0  0  0  0
 30 53  1  0  0  0  0
 30 54  1  0  0  0  0
 30 55  1  0  0  0  0
M  END
> <Name>
20

> <IC50[uM]>
0.016

$$$$
20
  -OEChem-05192314333D
 Structure written by MMmdl.
 55 58  0     1  0  0  0  0  0999 V2000
   -6.3740   12.3524  -12.0161 C   0  0  0  0  0  0  0  0  0  0  0  0
   -6.5100   11.8065  -10.7374 C   0  0  0  0  0  0  0  0  0  0  0  0
   -7.7222   10.5841  -13.0265 C   0  0  0  0  0  0  0  0  0  0  0  0
   -6.9887   11.7756  -13.1353 C   0  0  0  0  0  0  0  0  0  0  0  0
   -7.8163   10.0177  -11.7563 C   0  0  3  0  0  0  0  0  0  0  0  0
   -7.2425   10.6185  -10.6022 C   0  0  0  0  0  0  0  0  0  0  0  0
   -7.6172    9.7487   -9.5090 C   0  0  0  0  0  0  0  0  0  0  0  0
   -8.2846    8.7289   -9.9848 N   0  0  0  0  0  0  0  0  0  0  0  0
   -8.4176    8.8659  -11.2967 N   0  0  0  0  0  0  0  0  0  0  0  0
   -7.3368    9.8884   -8.0257 C   0  0  0  0  0  0  0  0  0  0  0  0
   -4.4023   13.6480  -11.4578 N   0  0  0  0  0  0  0  0  0  0  0  0
   -3.4623   14.7747  -11.4948 C   0  0  0  0  0  0  0  0  0  0  0  0
   -5.5331   13.6158  -12.1961 C   0  0  0  0  0  0  0  0  0  0  0  0
   -5.8776   14.5022  -12.9731 O   0  0  0  0  0  0  0  0  0  0  0  0
   -5.9585   10.4860   -7.7354 C   0  0  0  0  0  0  0  0  0  0  0  0
   -5.8494   11.7555   -7.1596 C   0  0  0  0  0  0  0  0  0  0  0  0
   -4.5968   12.3068   -6.9148 C   0  0  0  0  0  0  0  0  0  0  0  0
   -3.4468   11.5860   -7.2370 C   0  0  0  0  0  0  0  0  0  0  0  0
   -3.5513   10.3089   -7.8057 C   0  0  0  0  0  0  0  0  0  0  0  0
   -4.8090    9.7654   -8.0523 C   0  0  0  0  0  0  0  0  0  0  0  0
   -2.0901   12.1669   -6.9801 C   0  0  0  0  0  0  0  0  0  0  0  0
   -1.7479   13.4121   -6.4872 C   0  0  0  0  0  0  0  0  0  0  0  0
   -0.3990   13.4663   -6.4328 N   0  0  0  0  0  0  0  0  0  0  0  0
    0.1869   12.3691   -6.8386 N   0  0  0  0  0  0  0  0  0  0  0  0
   -0.8034   11.5628   -7.1902 C   0  0  0  0  0  0  0  0  0  0  0  0
    0.4389   14.5894   -5.9640 C   0  0  0  0  0  0  0  0  0  0  0  0
    1.5042   14.2139   -4.8744 C   0  0  0  0  0  0  0  0  0  0  0  0
    2.6302   13.6295   -5.4977 O   0  0  0  0  0  0  0  0  0  0  0  0
    0.9501   13.1612   -3.9053 C   0  0  0  0  0  0  0  0  0  0  0  0
    2.0179   15.4484   -4.1037 C   0  0  0  0  0  0  0  0  0  0  0  0
   -6.0641   12.2854   -9.8782 H   0  0  0  0  0  0  0  0  0  0  0  0
   -8.1913   10.1279  -13.8857 H   0  0  0  0  0  0  0  0  0  0  0  0
   -6.8965   12.2561  -14.0981 H   0  0  0  0  0  0  0  0  0  0  0  0
   -6.8834    9.4622  -11.9330 H   0  0  0  0  0  0  0  0  0  0  0  0
   -8.0357    9.5970   -7.2556 H   0  0  0  0  0  0  0  0  0  0  0  0
   -4.1971   12.8720  -10.8613 H   0  0  0  0  0  0  0  0  0  0  0  0
   -2.6221   14.5745  -10.8136 H   0  0  0  0  0  0  0  0  0  0  0  0
   -3.0817   14.9010  -12.5191 H   0  0  0  0  0  0  0  0  0  0  0  0
   -3.9787   15.6934  -11.1797 H   0  0  0  0  0  0  0  0  0  0  0  0
   -6.7407   12.3094   -6.9043 H   0  0  0  0  0  0  0  0  0  0  0  0
   -4.5143   13.2904   -6.4764 H   0  0  0  0  0  0  0  0  0  0  0  0
   -3.4456   11.1385   -6.2321 H   0  0  0  0  0  0  0  0  0  0  0  0
   -2.6607    9.7496   -8.0512 H   0  0  0  0  0  0  0  0  0  0  0  0
   -4.8939    8.7820   -8.4907 H   0  0  0  0  0  0  0  0  0  0  0  0
   -2.4321   14.1965   -6.1989 H   0  0  0  0  0  0  0  0  0  0  0  0
   -0.6606   10.5688   -7.5878 H   0  0  0  0  0  0  0  0  0  0  0  0
    0.9713   15.0036   -6.8329 H   0  0  0  0  0  0  0  0  0  0  0  0
   -0.2256   15.3572   -5.5409 H   0  0  0  0  0  0  0  0  0  0  0  0
    3.2752   13.4021   -4.8384 H   0  0  0  0  0  0  0  0  0  0  0  0
    1.7145   12.9160   -3.1533 H   0  0  0  0  0  0  0  0  0  0  0  0
    0.0563   13.5598   -3.4030 H   0  0  0  0  0  0  0  0  0  0  0  0
    0.6818   12.2530   -4.4649 H   0  0  0  0  0  0  0  0  0  0  0  0
    2.7591   15.1317   -3.3552 H   0  0  0  0  0  0  0  0  0  0  0  0
    2.4859   16.1517   -4.8082 H   0  0  0  0  0  0  0  0  0  0  0  0
    1.1747   15.9421   -3.5985 H   0  0  0  0  0  0  0  0  0  0  0  0
  1  2  2  0  0  0  0
  1  4  1  0  0  0  0
  1 13  1  0  0  0  0
  2  6  1  0  0  0  0
  3  4  2  0  0  0  0
  3  5  1  0  0  0  0
  5  6  1  0  0  0  0
  5  9  1  0  0  0  0
  6  7  2  0  0  0  0
  7  8  1  0  0  0  0
  7 10  1  0  0  0  0
  8  9  2  0  0  0  0
 10 15  2  0  0  0  0
 11 12  1  0  0  0  0
 11 13  1  0  0  0  0
 13 14  2  0  0  0  0
 15 16  1  0  0  0  0
 15 20  1  0  0  0  0
 16 17  2  0  0  0  0
 17 18  1  0  0  0  0
 18 19  1  0  0  0  0
 18 21  1  0  0  0  0
 19 20  2  0  0  0  0
 21 22  2  0  0  0  0
 21 25  1  0  0  0  0
 22 23  1  0  0  0  0
 23 24  1  0  0  0  0
 23 26  1  0  0  0  0
 24 25  2  0  0  0  0
 26 27  1  0  0  0  0
 27 28  1  0  0  0  0
 27 29  1  0  0  0  0
 27 30  1  0  0  0  0
  2 31  1  0  0  0  0
  3 32  1  0  0  0  0
  4 33  1  0  0  0  0
  5 34  1  0  0  0  0
 10 35  1  0  0  0  0
 11 36  1  0  0  0  0
 12 37  1  0  0  0  0
 12 38  1  0  0  0  0
 12 39  1  0  0  0  0
 16 40  1  0  0  0  0
 17 41  1  0  0  0  0
 18 42  1  0  0  0  0
 19 43  1  0  0  0  0
 20 44  1  0  0  0  0
 22 45  1  0  0  0  0
 25 46  1  0  0  0  0
 26 47  1  0  0  0  0
 26 48  1  0  0  0  0
 28 49  1  0  0  0  0
 29 50  1  0  0  0  0
 29 51  1  0  0  0  0
 29 52  1  0  0  0  0
 30 53  1  0  0  0  0
 30 54  1  0  0  0  0
 30 55  1  0  0  0  0
M  END
> <Name>
20

> <IC50[uM]>
0.016

$$$$
20
  -OEChem-05192314333D
 Structure written by MMmdl.
 55 58  0     0  0  0  0  0  0999 V2000
   -6.3740   12.3524  -12.0161 C   0  0  0  0  0  0  0  0  0  0  0  0
   -6.5100   11.8065  -10.7374 C   0  0  0  0  0  0  0  0  0  0  0  0
   -7.7222   10.5841  -13.0265 C   0  0  0  0  0  0  0  0  0  0  0  0
   -6.9887   11.7756  -13.1353 C   0  0  0  0  0  0  0  0  0  0  0  0
   -7.8163   10.0177  -11.7563 C   0  0  0  0  0  0  0  0  0  0  0  0
   -7.2425   10.6185  -10.6022 C   0  0  0  0  0  0  0  0  0  0  0  0
   -7.6172    9.7487   -9.5090 C   0  0  0  0  0  0  0  0  0  0  0  0
   -8.2846    8.7289   -9.9848 N   0  0  0  0  0  0  0  0  0  0  0  0
   -8.4176    8.8659  -11.2967 N   0  0  0  0  0  0  0  0  0  0  0  0
   -7.3368    9.8884   -8.0257 C   0  0  0  0  0  0  0  0  0  0  0  0
   -4.4023   13.6480  -11.4578 N   0  0  0  0  0  0  0  0  0  0  0  0
   -3.4623   14.7747  -11.4948 C   0  0  0  0  0  0  0  0  0  0  0  0
   -5.5331   13.6158  -12.1961 C   0  0  0  0  0  0  0  0  0  0  0  0
   -5.8776   14.5022  -12.9731 O   0  0  0  0  0  0  0  0  0  0  0  0
   -5.9585   10.4860   -7.7354 C   0  0  0  0  0  0  0  0  0  0  0  0
   -5.8494   11.7555   -7.1596 C   0  0  0  0  0  0  0  0  0  0  0  0
   -4.5968   12.3068   -6.9148 C   0  0  0  0  0  0  0  0  0  0  0  0
   -3.4468   11.5860   -7.2370 C   0  0  0  0  0  0  0  0  0  0  0  0
   -3.5513   10.3089   -7.8057 C   0  0  0  0  0  0  0  0  0  0  0  0
   -4.8090    9.7654   -8.0523 C   0  0  0  0  0  0  0  0  0  0  0  0
   -2.0901   12.1669   -6.9801 C   0  0  0  0  0  0  0  0  0  0  0  0
   -1.7479   13.4121   -6.4872 C   0  0  0  0  0  0  0  0  0  0  0  0
   -0.3990   13.4663   -6.4328 N   0  0  0  0  0  0  0  0  0  0  0  0
    0.1869   12.3691   -6.8386 N   0  0  0  0  0  0  0  0  0  0  0  0
   -0.8034   11.5628   -7.1902 C   0  0  0  0  0  0  0  0  0  0  0  0
    0.4389   14.5894   -5.9640 C   0  0  0  0  0  0  0  0  0  0  0  0
    1.5042   14.2139   -4.8744 C   0  0  0  0  0  0  0  0  0  0  0  0
    2.6302   13.6295   -5.4977 O   0  0  0  0  0  0  0  0  0  0  0  0
    0.9501   13.1612   -3.9053 C   0  0  0  0  0  0  0  0  0  0  0  0
    2.0179   15.4484   -4.1037 C   0  0  0  0  0  0  0  0  0  0  0  0
   -6.0641   12.2854   -9.8782 H   0  0  0  0  0  0  0  0  0  0  0  0
   -8.1913   10.1279  -13.8857 H   0  0  0  0  0  0  0  0  0  0  0  0
   -7.6795   12.5319  -13.5364 H   0  0  0  0  0  0  0  0  0  0  0  0
   -6.1895   11.5845  -13.8665 H   0  0  0  0  0  0  0  0  0  0  0  0
   -8.0357    9.5970   -7.2556 H   0  0  0  0  0  0  0  0  0  0  0  0
   -4.1971   12.8720  -10.8613 H   0  0  0  0  0  0  0  0  0  0  0  0
   -2.6221   14.5745  -10.8136 H   0  0  0  0  0  0  0  0  0  0  0  0
   -3.0817   14.9010  -12.5191 H   0  0  0  0  0  0  0  0  0  0  0  0
   -3.9787   15.6934  -11.1797 H   0  0  0  0  0  0  0  0  0  0  0  0
   -6.7407   12.3094   -6.9043 H   0  0  0  0  0  0  0  0  0  0  0  0
   -4.5143   13.2904   -6.4764 H   0  0  0  0  0  0  0  0  0  0  0  0
   -3.4456   11.1385   -6.2321 H   0  0  0  0  0  0  0  0  0  0  0  0
   -2.6607    9.7496   -8.0512 H   0  0  0  0  0  0  0  0  0  0  0  0
   -4.8939    8.7820   -8.4907 H   0  0  0  0  0  0  0  0  0  0  0  0
   -2.4321   14.1965   -6.1989 H   0  0  0  0  0  0  0  0  0  0  0  0
   -0.6606   10.5688   -7.5878 H   0  0  0  0  0  0  0  0  0  0  0  0
    0.9713   15.0036   -6.8329 H   0  0  0  0  0  0  0  0  0  0  0  0
   -0.2256   15.3572   -5.5409 H   0  0  0  0  0  0  0  0  0  0  0  0
    3.2752   13.4021   -4.8384 H   0  0  0  0  0  0  0  0  0  0  0  0
    1.7145   12.9160   -3.1533 H   0  0  0  0  0  0  0  0  0  0  0  0
    0.0563   13.5598   -3.4030 H   0  0  0  0  0  0  0  0  0  0  0  0
    0.6818   12.2530   -4.4649 H   0  0  0  0  0  0  0  0  0  0  0  0
    2.7591   15.1317   -3.3552 H   0  0  0  0  0  0  0  0  0  0  0  0
    2.4859   16.1517   -4.8082 H   0  0  0  0  0  0  0  0  0  0  0  0
    1.1747   15.9421   -3.5985 H   0  0  0  0  0  0  0  0  0  0  0  0
  1  2  2  0  0  0  0
  1  4  1  0  0  0  0
  1 13  1  0  0  0  0
  2  6  1  0  0  0  0
  3  4  1  0  0  0  0
  3  5  2  0  0  0  0
  5  6  1  0  0  0  0
  5  9  1  0  0  0  0
  6  7  2  0  0  0  0
  7  8  1  0  0  0  0
  7 10  1  0  0  0  0
  8  9  2  0  0  0  0
 10 15  2  0  0  0  0
 11 12  1  0  0  0  0
 11 13  1  0  0  0  0
 13 14  2  0  0  0  0
 15 16  1  0  0  0  0
 15 20  1  0  0  0  0
 16 17  2  0  0  0  0
 17 18  1  0  0  0  0
 18 19  1  0  0  0  0
 18 21  1  0  0  0  0
 19 20  2  0  0  0  0
 21 22  2  0  0  0  0
 21 25  1  0  0  0  0
 22 23  1  0  0  0  0
 23 24  1  0  0  0  0
 23 26  1  0  0  0  0
 24 25  2  0  0  0  0
 26 27  1  0  0  0  0
 27 28  1  0  0  0  0
 27 29  1  0  0  0  0
 27 30  1  0  0  0  0
  2 31  1  0  0  0  0
  3 32  1  0  0  0  0
  4 33  1  0  0  0  0
  4 34  1  0  0  0  0
 10 35  1  0  0  0  0
 11 36  1  0  0  0  0
 12 37  1  0  0  0  0
 12 38  1  0  0  0  0
 12 39  1  0  0  0  0
 16 40  1  0  0  0  0
 17 41  1  0  0  0  0
 18 42  1  0  0  0  0
 19 43  1  0  0  0  0
 20 44  1  0  0  0  0
 22 45  1  0  0  0  0
 25 46  1  0  0  0  0
 26 47  1  0  0  0  0
 26 48  1  0  0  0  0
 28 49  1  0  0  0  0
 29 50  1  0  0  0  0
 29 51  1  0  0  0  0
 29 52  1  0  0  0  0
 30 53  1  0  0  0  0
 30 54  1  0  0  0  0
 30 55  1  0  0  0  0
M  END
> <Name>
20

> <IC50[uM]>
0.016

$$$$
20
  -OEChem-05192314333D
 Structure written by MMmdl.
 55 58  0     1  0  0  0  0  0999 V2000
   -6.3740   12.3524  -12.0161 C   0  0  0  0  0  0  0  0  0  0  0  0
   -6.5100   11.8065  -10.7374 C   0  0  0  0  0  0  0  0  0  0  0  0
   -7.7222   10.5841  -13.0265 C   0  0  0  0  0  0  0  0  0  0  0  0
   -6.9887   11.7756  -13.1353 C   0  0  0  0  0  0  0  0  0  0  0  0
   -7.8163   10.0177  -11.7563 C   0  0  3  0  0  0  0  0  0  0  0  0
   -7.2425   10.6185  -10.6022 C   0  0  0  0  0  0  0  0  0  0  0  0
   -7.6172    9.7487   -9.5090 C   0  0  0  0  0  0  0  0  0  0  0  0
   -8.2846    8.7289   -9.9848 N   0  0  0  0  0  0  0  0  0  0  0  0
   -8.4176    8.8659  -11.2967 N   0  0  0  0  0  0  0  0  0  0  0  0
   -7.3368    9.8884   -8.0257 C   0  0  0  0  0  0  0  0  0  0  0  0
   -4.4023   13.6480  -11.4578 N   0  0  0  0  0  0  0  0  0  0  0  0
   -3.4623   14.7747  -11.4948 C   0  0  0  0  0  0  0  0  0  0  0  0
   -5.5331   13.6158  -12.1961 C   0  0  0  0  0  0  0  0  0  0  0  0
   -5.8776   14.5022  -12.9731 O   0  0  0  0  0  0  0  0  0  0  0  0
   -5.9585   10.4860   -7.7354 C   0  0  0  0  0  0  0  0  0  0  0  0
   -5.8494   11.7555   -7.1596 C   0  0  0  0  0  0  0  0  0  0  0  0
   -4.5968   12.3068   -6.9148 C   0  0  0  0  0  0  0  0  0  0  0  0
   -3.4468   11.5860   -7.2370 C   0  0  0  0  0  0  0  0  0  0  0  0
   -3.5513   10.3089   -7.8057 C   0  0  0  0  0  0  0  0  0  0  0  0
   -4.8090    9.7654   -8.0523 C   0  0  0  0  0  0  0  0  0  0  0  0
   -2.0901   12.1669   -6.9801 C   0  0  0  0  0  0  0  0  0  0  0  0
   -1.7479   13.4121   -6.4872 C   0  0  0  0  0  0  0  0  0  0  0  0
   -0.3990   13.4663   -6.4328 N   0  0  0  0  0  0  0  0  0  0  0  0
    0.1869   12.3691   -6.8386 N   0  0  0  0  0  0  0  0  0  0  0  0
   -0.8034   11.5628   -7.1902 C   0  0  0  0  0  0  0  0  0  0  0  0
    0.4389   14.5894   -5.9640 C   0  0  0  0  0  0  0  0  0  0  0  0
    1.5042   14.2139   -4.8744 C   0  0  0  0  0  0  0  0  0  0  0  0
    2.6302   13.6295   -5.4977 O   0  0  0  0  0  0  0  0  0  0  0  0
    0.9501   13.1612   -3.9053 C   0  0  0  0  0  0  0  0  0  0  0  0
    2.0179   15.4484   -4.1037 C   0  0  0  0  0  0  0  0  0  0  0  0
   -6.0641   12.2854   -9.8782 H   0  0  0  0  0  0  0  0  0  0  0  0
   -8.1913   10.1279  -13.8857 H   0  0  0  0  0  0  0  0  0  0  0  0
   -6.8965   12.2561  -14.0981 H   0  0  0  0  0  0  0  0  0  0  0  0
   -6.8834    9.4622  -11.9330 H   0  0  0  0  0  0  0  0  0  0  0  0
   -8.0357    9.5970   -7.2556 H   0  0  0  0  0  0  0  0  0  0  0  0
   -4.1971   12.8720  -10.8613 H   0  0  0  0  0  0  0  0  0  0  0  0
   -2.6221   14.5745  -10.8136 H   0  0  0  0  0  0  0  0  0  0  0  0
   -3.0817   14.9010  -12.5191 H   0  0  0  0  0  0  0  0  0  0  0  0
   -3.9787   15.6934  -11.1797 H   0  0  0  0  0  0  0  0  0  0  0  0
   -6.7407   12.3094   -6.9043 H   0  0  0  0  0  0  0  0  0  0  0  0
   -4.5143   13.2904   -6.4764 H   0  0  0  0  0  0  0  0  0  0  0  0
   -2.6607    9.7496   -8.0512 H   0  0  0  0  0  0  0  0  0  0  0  0
   -4.8619    8.8217   -7.4897 H   0  0  0  0  0  0  0  0  0  0  0  0
   -4.8560    9.5526   -9.1305 H   0  0  0  0  0  0  0  0  0  0  0  0
   -2.4321   14.1965   -6.1989 H   0  0  0  0  0  0  0  0  0  0  0  0
   -0.6606   10.5688   -7.5878 H   0  0  0  0  0  0  0  0  0  0  0  0
    0.9713   15.0036   -6.8329 H   0  0  0  0  0  0  0  0  0  0  0  0
   -0.2256   15.3572   -5.5409 H   0  0  0  0  0  0  0  0  0  0  0  0
    3.2752   13.4021   -4.8384 H   0  0  0  0  0  0  0  0  0  0  0  0
    1.7145   12.9160   -3.1533 H   0  0  0  0  0  0  0  0  0  0  0  0
    0.0563   13.5598   -3.4030 H   0  0  0  0  0  0  0  0  0  0  0  0
    0.6818   12.2530   -4.4649 H   0  0  0  0  0  0  0  0  0  0  0  0
    2.7591   15.1317   -3.3552 H   0  0  0  0  0  0  0  0  0  0  0  0
    2.4859   16.1517   -4.8082 H   0  0  0  0  0  0  0  0  0  0  0  0
    1.1747   15.9421   -3.5985 H   0  0  0  0  0  0  0  0  0  0  0  0
  1  2  2  0  0  0  0
  1  4  1  0  0  0  0
  1 13  1  0  0  0  0
  2  6  1  0  0  0  0
  3  4  2  0  0  0  0
  3  5  1  0  0  0  0
  5  6  1  0  0  0  0
  5  9  1  0  0  0  0
  6  7  2  0  0  0  0
  7  8  1  0  0  0  0
  7 10  1  0  0  0  0
  8  9  2  0  0  0  0
 10 15  2  3  0  0  0
 11 12  1  0  0  0  0
 11 13  1  0  0  0  0
 13 14  2  0  0  0  0
 15 16  1  0  0  0  0
 15 20  1  0  0  0  0
 16 17  2  0  0  0  0
 17 18  1  0  0  0  0
 18 19  2  0  0  0  0
 18 21  1  0  0  0  0
 19 20  1  0  0  0  0
 21 22  2  0  0  0  0
 21 25  1  0  0  0  0
 22 23  1  0  0  0  0
 23 24  1  0  0  0  0
 23 26  1  0  0  0  0
 24 25  2  0  0  0  0
 26 27  1  0  0  0  0
 27 28  1  0  0  0  0
 27 29  1  0  0  0  0
 27 30  1  0  0  0  0
  2 31  1  0  0  0  0
  3 32  1  0  0  0  0
  4 33  1  0  0  0  0
  5 34  1  0  0  0  0
 10 35  1  0  0  0  0
 11 36  1  0  0  0  0
 12 37  1  0  0  0  0
 12 38  1  0  0  0  0
 12 39  1  0  0  0  0
 16 40  1  0  0  0  0
 17 41  1  0  0  0  0
 19 42  1  0  0  0  0
 20 43  1  0  0  0  0
 20 44  1  0  0  0  0
 22 45  1  0  0  0  0
 25 46  1  0  0  0  0
 26 47  1  0  0  0  0
 26 48  1  0  0  0  0
 28 49  1  0  0  0  0
 29 50  1  0  0  0  0
 29 51  1  0  0  0  0
 29 52  1  0  0  0  0
 30 53  1  0  0  0  0
 30 54  1  0  0  0  0
 30 55  1  0  0  0  0
M  END
> <Name>
20

> <IC50[uM]>
0.016

$$$$
20
  -OEChem-05192314333D
 Structure written by MMmdl.
 55 58  0     0  0  0  0  0  0999 V2000
   -6.3740   12.3524  -12.0161 C   0  0  0  0  0  0  0  0  0  0  0  0
   -6.5100   11.8065  -10.7374 C   0  0  0  0  0  0  0  0  0  0  0  0
   -7.7222   10.5841  -13.0265 C   0  0  0  0  0  0  0  0  0  0  0  0
   -6.9887   11.7756  -13.1353 C   0  0  0  0  0  0  0  0  0  0  0  0
   -7.8163   10.0177  -11.7563 C   0  0  0  0  0  0  0  0  0  0  0  0
   -7.2425   10.6185  -10.6022 C   0  0  0  0  0  0  0  0  0  0  0  0
   -7.6172    9.7487   -9.5090 C   0  0  0  0  0  0  0  0  0  0  0  0
   -8.2846    8.7289   -9.9848 N   0  0  0  0  0  0  0  0  0  0  0  0
   -8.4176    8.8659  -11.2967 N   0  0  0  0  0  0  0  0  0  0  0  0
   -7.3368    9.8884   -8.0257 C   0  0  0  0  0  0  0  0  0  0  0  0
   -4.4023   13.6480  -11.4578 N   0  0  0  0  0  0  0  0  0  0  0  0
   -3.4623   14.7747  -11.4948 C   0  0  0  0  0  0  0  0  0  0  0  0
   -5.5331   13.6158  -12.1961 C   0  0  0  0  0  0  0  0  0  0  0  0
   -5.8776   14.5022  -12.9731 O   0  0  0  0  0  0  0  0  0  0  0  0
   -5.9585   10.4860   -7.7354 C   0  0  0  0  0  0  0  0  0  0  0  0
   -5.8494   11.7555   -7.1596 C   0  0  0  0  0  0  0  0  0  0  0  0
   -4.5968   12.3068   -6.9148 C   0  0  0  0  0  0  0  0  0  0  0  0
   -3.4468   11.5860   -7.2370 C   0  0  0  0  0  0  0  0  0  0  0  0
   -3.5513   10.3089   -7.8057 C   0  0  0  0  0  0  0  0  0  0  0  0
   -4.8090    9.7654   -8.0523 C   0  0  0  0  0  0  0  0  0  0  0  0
   -2.0901   12.1669   -6.9801 C   0  0  0  0  0  0  0  0  0  0  0  0
   -1.7479   13.4121   -6.4872 C   0  0  0  0  0  0  0  0  0  0  0  0
   -0.3990   13.4663   -6.4328 N   0  0  0  0  0  0  0  0  0  0  0  0
    0.1869   12.3691   -6.8386 N   0  0  0  0  0  0  0  0  0  0  0  0
   -0.8034   11.5628   -7.1902 C   0  0  0  0  0  0  0  0  0  0  0  0
    0.4389   14.5894   -5.9640 C   0  0  0  0  0  0  0  0  0  0  0  0
    1.5042   14.2139   -4.8744 C   0  0  0  0  0  0  0  0  0  0  0  0
    2.6302   13.6295   -5.4977 O   0  0  0  0  0  0  0  0  0  0  0  0
    0.9501   13.1612   -3.9053 C   0  0  0  0  0  0  0  0  0  0  0  0
    2.0179   15.4484   -4.1037 C   0  0  0  0  0  0  0  0  0  0  0  0
   -6.0641   12.2854   -9.8782 H   0  0  0  0  0  0  0  0  0  0  0  0
   -8.1913   10.1279  -13.8857 H   0  0  0  0  0  0  0  0  0  0  0  0
   -7.6795   12.5319  -13.5364 H   0  0  0  0  0  0  0  0  0  0  0  0
   -6.1895   11.5845  -13.8665 H   0  0  0  0  0  0  0  0  0  0  0  0
   -8.0357    9.5970   -7.2556 H   0  0  0  0  0  0  0  0  0  0  0  0
   -4.1971   12.8720  -10.8613 H   0  0  0  0  0  0  0  0  0  0  0  0
   -2.6221   14.5745  -10.8136 H   0  0  0  0  0  0  0  0  0  0  0  0
   -3.0817   14.9010  -12.5191 H   0  0  0  0  0  0  0  0  0  0  0  0
   -3.9787   15.6934  -11.1797 H   0  0  0  0  0  0  0  0  0  0  0  0
   -6.7407   12.3094   -6.9043 H   0  0  0  0  0  0  0  0  0  0  0  0
   -4.5143   13.2904   -6.4764 H   0  0  0  0  0  0  0  0  0  0  0  0
   -2.6607    9.7496   -8.0512 H   0  0  0  0  0  0  0  0  0  0  0  0
   -4.8619    8.8217   -7.4897 H   0  0  0  0  0  0  0  0  0  0  0  0
   -4.8560    9.5526   -9.1305 H   0  0  0  0  0  0  0  0  0  0  0  0
   -2.4321   14.1965   -6.1989 H   0  0  0  0  0  0  0  0  0  0  0  0
   -0.6606   10.5688   -7.5878 H   0  0  0  0  0  0  0  0  0  0  0  0
    0.9713   15.0036   -6.8329 H   0  0  0  0  0  0  0  0  0  0  0  0
   -0.2256   15.3572   -5.5409 H   0  0  0  0  0  0  0  0  0  0  0  0
    3.2752   13.4021   -4.8384 H   0  0  0  0  0  0  0  0  0  0  0  0
    1.7145   12.9160   -3.1533 H   0  0  0  0  0  0  0  0  0  0  0  0
    0.0563   13.5598   -3.4030 H   0  0  0  0  0  0  0  0  0  0  0  0
    0.6818   12.2530   -4.4649 H   0  0  0  0  0  0  0  0  0  0  0  0
    2.7591   15.1317   -3.3552 H   0  0  0  0  0  0  0  0  0  0  0  0
    2.4859   16.1517   -4.8082 H   0  0  0  0  0  0  0  0  0  0  0  0
    1.1747   15.9421   -3.5985 H   0  0  0  0  0  0  0  0  0  0  0  0
  1  2  2  0  0  0  0
  1  4  1  0  0  0  0
  1 13  1  0  0  0  0
  2  6  1  0  0  0  0
  3  4  1  0  0  0  0
  3  5  2  0  0  0  0
  5  6  1  0  0  0  0
  5  9  1  0  0  0  0
  6  7  2  0  0  0  0
  7  8  1  0  0  0  0
  7 10  1  0  0  0  0
  8  9  2  0  0  0  0
 10 15  2  3  0  0  0
 11 12  1  0  0  0  0
 11 13  1  0  0  0  0
 13 14  2  0  0  0  0
 15 16  1  0  0  0  0
 15 20  1  0  0  0  0
 16 17  2  0  0  0  0
 17 18  1  0  0  0  0
 18 19  2  0  0  0  0
 18 21  1  0  0  0  0
 19 20  1  0  0  0  0
 21 22  2  0  0  0  0
 21 25  1  0  0  0  0
 22 23  1  0  0  0  0
 23 24  1  0  0  0  0
 23 26  1  0  0  0  0
 24 25  2  0  0  0  0
 26 27  1  0  0  0  0
 27 28  1  0  0  0  0
 27 29  1  0  0  0  0
 27 30  1  0  0  0  0
  2 31  1  0  0  0  0
  3 32  1  0  0  0  0
  4 33  1  0  0  0  0
  4 34  1  0  0  0  0
 10 35  1  0  0  0  0
 11 36  1  0  0  0  0
 12 37  1  0  0  0  0
 12 38  1  0  0  0  0
 12 39  1  0  0  0  0
 16 40  1  0  0  0  0
 17 41  1  0  0  0  0
 19 42  1  0  0  0  0
 20 43  1  0  0  0  0
 20 44  1  0  0  0  0
 22 45  1  0  0  0  0
 25 46  1  0  0  0  0
 26 47  1  0  0  0  0
 26 48  1  0  0  0  0
 28 49  1  0  0  0  0
 29 50  1  0  0  0  0
 29 51  1  0  0  0  0
 29 52  1  0  0  0  0
 30 53  1  0  0  0  0
 30 54  1  0  0  0  0
 30 55  1  0  0  0  0
M  END
> <Name>
20

> <IC50[uM]>
0.016

$$$$
20
  -OEChem-05192314333D
 Structure written by MMmdl.
 55 58  0     0  0  0  0  0  0999 V2000
   -6.3740   12.3524  -12.0161 C   0  0  0  0  0  0  0  0  0  0  0  0
   -6.5100   11.8065  -10.7374 C   0  0  0  0  0  0  0  0  0  0  0  0
   -7.7222   10.5841  -13.0265 C   0  0  0  0  0  0  0  0  0  0  0  0
   -6.9887   11.7756  -13.1353 C   0  0  0  0  0  0  0  0  0  0  0  0
   -7.8163   10.0177  -11.7563 C   0  0  0  0  0  0  0  0  0  0  0  0
   -7.2425   10.6185  -10.6022 C   0  0  0  0  0  0  0  0  0  0  0  0
   -7.6172    9.7487   -9.5090 C   0  0  0  0  0  0  0  0  0  0  0  0
   -8.2846    8.7289   -9.9848 N   0  0  0  0  0  0  0  0  0  0  0  0
   -8.4176    8.8659  -11.2967 N   0  0  0  0  0  0  0  0  0  0  0  0
   -7.3368    9.8884   -8.0257 C   0  0  0  0  0  0  0  0  0  0  0  0
   -4.4023   13.6480  -11.4578 N   0  0  0  0  0  0  0  0  0  0  0  0
   -3.4623   14.7747  -11.4948 C   0  0  0  0  0  0  0  0  0  0  0  0
   -5.5331   13.6158  -12.1961 C   0  0  0  0  0  0  0  0  0  0  0  0
   -5.8776   14.5022  -12.9731 O   0  0  0  0  0  0  0  0  0  0  0  0
   -5.9585   10.4860   -7.7354 C   0  0  0  0  0  0  0  0  0  0  0  0
   -5.8494   11.7555   -7.1596 C   0  0  0  0  0  0  0  0  0  0  0  0
   -4.5968   12.3068   -6.9148 C   0  0  0  0  0  0  0  0  0  0  0  0
   -3.4468   11.5860   -7.2370 C   0  0  0  0  0  0  0  0  0  0  0  0
   -3.5513   10.3089   -7.8057 C   0  0  0  0  0  0  0  0  0  0  0  0
   -4.8090    9.7654   -8.0523 C   0  0  0  0  0  0  0  0  0  0  0  0
   -2.0901   12.1669   -6.9801 C   0  0  0  0  0  0  0  0  0  0  0  0
   -1.7479   13.4121   -6.4872 C   0  0  0  0  0  0  0  0  0  0  0  0
   -0.3990   13.4663   -6.4328 N   0  0  0  0  0  0  0  0  0  0  0  0
    0.1869   12.3691   -6.8386 N   0  0  0  0  0  0  0  0  0  0  0  0
   -0.8034   11.5628   -7.1902 C   0  0  0  0  0  0  0  0  0  0  0  0
    0.4389   14.5894   -5.9640 C   0  0  0  0  0  0  0  0  0  0  0  0
    1.5042   14.2139   -4.8744 C   0  0  0  0  0  0  0  0  0  0  0  0
    2.6302   13.6295   -5.4977 O   0  0  0  0  0  0  0  0  0  0  0  0
    0.9501   13.1612   -3.9053 C   0  0  0  0  0  0  0  0  0  0  0  0
    2.0179   15.4484   -4.1037 C   0  0  0  0  0  0  0  0  0  0  0  0
   -5.4969   11.6111  -10.3560 H   0  0  0  0  0  0  0  0  0  0  0  0
   -6.9986   12.5652  -10.1084 H   0  0  0  0  0  0  0  0  0  0  0  0
   -8.1913   10.1279  -13.8857 H   0  0  0  0  0  0  0  0  0  0  0  0
   -6.8965   12.2561  -14.0981 H   0  0  0  0  0  0  0  0  0  0  0  0
   -8.0357    9.5970   -7.2556 H   0  0  0  0  0  0  0  0  0  0  0  0
   -4.1971   12.8720  -10.8613 H   0  0  0  0  0  0  0  0  0  0  0  0
   -2.6221   14.5745  -10.8136 H   0  0  0  0  0  0  0  0  0  0  0  0
   -3.0817   14.9010  -12.5191 H   0  0  0  0  0  0  0  0  0  0  0  0
   -3.9787   15.6934  -11.1797 H   0  0  0  0  0  0  0  0  0  0  0  0
   -6.7407   12.3094   -6.9043 H   0  0  0  0  0  0  0  0  0  0  0  0
   -4.5143   13.2904   -6.4764 H   0  0  0  0  0  0  0  0  0  0  0  0
   -3.4456   11.1385   -6.2321 H   0  0  0  0  0  0  0  0  0  0  0  0
   -2.6607    9.7496   -8.0512 H   0  0  0  0  0  0  0  0  0  0  0  0
   -4.8939    8.7820   -8.4907 H   0  0  0  0  0  0  0  0  0  0  0  0
   -2.4321   14.1965   -6.1989 H   0  0  0  0  0  0  0  0  0  0  0  0
   -0.6606   10.5688   -7.5878 H   0  0  0  0  0  0  0  0  0  0  0  0
    0.9713   15.0036   -6.8329 H   0  0  0  0  0  0  0  0  0  0  0  0
   -0.2256   15.3572   -5.5409 H   0  0  0  0  0  0  0  0  0  0  0  0
    3.2752   13.4021   -4.8384 H   0  0  0  0  0  0  0  0  0  0  0  0
    1.7145   12.9160   -3.1533 H   0  0  0  0  0  0  0  0  0  0  0  0
    0.0563   13.5598   -3.4030 H   0  0  0  0  0  0  0  0  0  0  0  0
    0.6818   12.2530   -4.4649 H   0  0  0  0  0  0  0  0  0  0  0  0
    2.7591   15.1317   -3.3552 H   0  0  0  0  0  0  0  0  0  0  0  0
    2.4859   16.1517   -4.8082 H   0  0  0  0  0  0  0  0  0  0  0  0
    1.1747   15.9421   -3.5985 H   0  0  0  0  0  0  0  0  0  0  0  0
  1  2  1  0  0  0  0
  1  4  2  0  0  0  0
  1 13  1  0  0  0  0
  2  6  1  0  0  0  0
  3  4  1  0  0  0  0
  3  5  2  0  0  0  0
  5  6  1  0  0  0  0
  5  9  1  0  0  0  0
  6  7  2  0  0  0  0
  7  8  1  0  0  0  0
  7 10  1  0  0  0  0
  8  9  2  0  0  0  0
 10 15  2  0  0  0  0
 11 12  1  0  0  0  0
 11 13  1  0  0  0  0
 13 14  2  0  0  0  0
 15 16  1  0  0  0  0
 15 20  1  0  0  0  0
 16 17  2  0  0  0  0
 17 18  1  0  0  0  0
 18 19  1  0  0  0  0
 18 21  1  0  0  0  0
 19 20  2  0  0  0  0
 21 22  2  0  0  0  0
 21 25  1  0  0  0  0
 22 23  1  0  0  0  0
 23 24  1  0  0  0  0
 23 26  1  0  0  0  0
 24 25  2  0  0  0  0
 26 27  1  0  0  0  0
 27 28  1  0  0  0  0
 27 29  1  0  0  0  0
 27 30  1  0  0  0  0
  2 31  1  0  0  0  0
  2 32  1  0  0  0  0
  3 33  1  0  0  0  0
  4 34  1  0  0  0  0
 10 35  1  0  0  0  0
 11 36  1  0  0  0  0
 12 37  1  0  0  0  0
 12 38  1  0  0  0  0
 12 39  1  0  0  0  0
 16 40  1  0  0  0  0
 17 41  1  0  0  0  0
 18 42  1  0  0  0  0
 19 43  1  0  0  0  0
 20 44  1  0  0  0  0
 22 45  1  0  0  0  0
 25 46  1  0  0  0  0
 26 47  1  0  0  0  0
 26 48  1  0  0  0  0
 28 49  1  0  0  0  0
 29 50  1  0  0  0  0
 29 51  1  0  0  0  0
 29 52  1  0  0  0  0
 30 53  1  0  0  0  0
 30 54  1  0  0  0  0
 30 55  1  0  0  0  0
M  END
> <Name>
20

> <IC50[uM]>
0.016

$$$$
20
  -OEChem-05192314333D
 Structure written by MMmdl.
 55 58  0     0  0  0  0  0  0999 V2000
   -6.3740   12.3524  -12.0161 C   0  0  0  0  0  0  0  0  0  0  0  0
   -6.5100   11.8065  -10.7374 C   0  0  0  0  0  0  0  0  0  0  0  0
   -7.7222   10.5841  -13.0265 C   0  0  0  0  0  0  0  0  0  0  0  0
   -6.9887   11.7756  -13.1353 C   0  0  0  0  0  0  0  0  0  0  0  0
   -7.8163   10.0177  -11.7563 C   0  0  0  0  0  0  0  0  0  0  0  0
   -7.2425   10.6185  -10.6022 C   0  0  0  0  0  0  0  0  0  0  0  0
   -7.6172    9.7487   -9.5090 C   0  0  0  0  0  0  0  0  0  0  0  0
   -8.2846    8.7289   -9.9848 N   0  0  0  0  0  0  0  0  0  0  0  0
   -8.4176    8.8659  -11.2967 N   0  0  0  0  0  0  0  0  0  0  0  0
   -7.3368    9.8884   -8.0257 C   0  0  0  0  0  0  0  0  0  0  0  0
   -4.4023   13.6480  -11.4578 N   0  0  0  0  0  0  0  0  0  0  0  0
   -3.4623   14.7747  -11.4948 C   0  0  0  0  0  0  0  0  0  0  0  0
   -5.5331   13.6158  -12.1961 C   0  0  0  0  0  0  0  0  0  0  0  0
   -5.8776   14.5022  -12.9731 O   0  0  0  0  0  0  0  0  0  0  0  0
   -5.9585   10.4860   -7.7354 C   0  0  0  0  0  0  0  0  0  0  0  0
   -5.8494   11.7555   -7.1596 C   0  0  0  0  0  0  0  0  0  0  0  0
   -4.5968   12.3068   -6.9148 C   0  0  0  0  0  0  0  0  0  0  0  0
   -3.4468   11.5860   -7.2370 C   0  0  0  0  0  0  0  0  0  0  0  0
   -3.5513   10.3089   -7.8057 C   0  0  0  0  0  0  0  0  0  0  0  0
   -4.8090    9.7654   -8.0523 C   0  0  0  0  0  0  0  0  0  0  0  0
   -2.0901   12.1669   -6.9801 C   0  0  0  0  0  0  0  0  0  0  0  0
   -1.7479   13.4121   -6.4872 C   0  0  0  0  0  0  0  0  0  0  0  0
   -0.3990   13.4663   -6.4328 N   0  0  0  0  0  0  0  0  0  0  0  0
    0.1869   12.3691   -6.8386 N   0  0  0  0  0  0  0  0  0  0  0  0
   -0.8034   11.5628   -7.1902 C   0  0  0  0  0  0  0  0  0  0  0  0
    0.4389   14.5894   -5.9640 C   0  0  0  0  0  0  0  0  0  0  0  0
    1.5042   14.2139   -4.8744 C   0  0  0  0  0  0  0  0  0  0  0  0
    2.6302   13.6295   -5.4977 O   0  0  0  0  0  0  0  0  0  0  0  0
    0.9501   13.1612   -3.9053 C   0  0  0  0  0  0  0  0  0  0  0  0
    2.0179   15.4484   -4.1037 C   0  0  0  0  0  0  0  0  0  0  0  0
   -5.4969   11.6111  -10.3560 H   0  0  0  0  0  0  0  0  0  0  0  0
   -6.9986   12.5652  -10.1084 H   0  0  0  0  0  0  0  0  0  0  0  0
   -8.1913   10.1279  -13.8857 H   0  0  0  0  0  0  0  0  0  0  0  0
   -6.8965   12.2561  -14.0981 H   0  0  0  0  0  0  0  0  0  0  0  0
   -8.0357    9.5970   -7.2556 H   0  0  0  0  0  0  0  0  0  0  0  0
   -4.1971   12.8720  -10.8613 H   0  0  0  0  0  0  0  0  0  0  0  0
   -2.6221   14.5745  -10.8136 H   0  0  0  0  0  0  0  0  0  0  0  0
   -3.0817   14.9010  -12.5191 H   0  0  0  0  0  0  0  0  0  0  0  0
   -3.9787   15.6934  -11.1797 H   0  0  0  0  0  0  0  0  0  0  0  0
   -6.7407   12.3094   -6.9043 H   0  0  0  0  0  0  0  0  0  0  0  0
   -4.5143   13.2904   -6.4764 H   0  0  0  0  0  0  0  0  0  0  0  0
   -2.6607    9.7496   -8.0512 H   0  0  0  0  0  0  0  0  0  0  0  0
   -4.8619    8.8217   -7.4897 H   0  0  0  0  0  0  0  0  0  0  0  0
   -4.8560    9.5526   -9.1305 H   0  0  0  0  0  0  0  0  0  0  0  0
   -2.4321   14.1965   -6.1989 H   0  0  0  0  0  0  0  0  0  0  0  0
   -0.6606   10.5688   -7.5878 H   0  0  0  0  0  0  0  0  0  0  0  0
    0.9713   15.0036   -6.8329 H   0  0  0  0  0  0  0  0  0  0  0  0
   -0.2256   15.3572   -5.5409 H   0  0  0  0  0  0  0  0  0  0  0  0
    3.2752   13.4021   -4.8384 H   0  0  0  0  0  0  0  0  0  0  0  0
    1.7145   12.9160   -3.1533 H   0  0  0  0  0  0  0  0  0  0  0  0
    0.0563   13.5598   -3.4030 H   0  0  0  0  0  0  0  0  0  0  0  0
    0.6818   12.2530   -4.4649 H   0  0  0  0  0  0  0  0  0  0  0  0
    2.7591   15.1317   -3.3552 H   0  0  0  0  0  0  0  0  0  0  0  0
    2.4859   16.1517   -4.8082 H   0  0  0  0  0  0  0  0  0  0  0  0
    1.1747   15.9421   -3.5985 H   0  0  0  0  0  0  0  0  0  0  0  0
  1  2  1  0  0  0  0
  1  4  2  0  0  0  0
  1 13  1  0  0  0  0
  2  6  1  0  0  0  0
  3  4  1  0  0  0  0
  3  5  2  0  0  0  0
  5  6  1  0  0  0  0
  5  9  1  0  0  0  0
  6  7  2  0  0  0  0
  7  8  1  0  0  0  0
  7 10  1  0  0  0  0
  8  9  2  0  0  0  0
 10 15  2  3  0  0  0
 11 12  1  0  0  0  0
 11 13  1  0  0  0  0
 13 14  2  0  0  0  0
 15 16  1  0  0  0  0
 15 20  1  0  0  0  0
 16 17  2  0  0  0  0
 17 18  1  0  0  0  0
 18 19  2  0  0  0  0
 18 21  1  0  0  0  0
 19 20  1  0  0  0  0
 21 22  2  0  0  0  0
 21 25  1  0  0  0  0
 22 23  1  0  0  0  0
 23 24  1  0  0  0  0
 23 26  1  0  0  0  0
 24 25  2  0  0  0  0
 26 27  1  0  0  0  0
 27 28  1  0  0  0  0
 27 29  1  0  0  0  0
 27 30  1  0  0  0  0
  2 31  1  0  0  0  0
  2 32  1  0  0  0  0
  3 33  1  0  0  0  0
  4 34  1  0  0  0  0
 10 35  1  0  0  0  0
 11 36  1  0  0  0  0
 12 37  1  0  0  0  0
 12 38  1  0  0  0  0
 12 39  1  0  0  0  0
 16 40  1  0  0  0  0
 17 41  1  0  0  0  0
 19 42  1  0  0  0  0
 20 43  1  0  0  0  0
 20 44  1  0  0  0  0
 22 45  1  0  0  0  0
 25 46  1  0  0  0  0
 26 47  1  0  0  0  0
 26 48  1  0  0  0  0
 28 49  1  0  0  0  0
 29 50  1  0  0  0  0
 29 51  1  0  0  0  0
 29 52  1  0  0  0  0
 30 53  1  0  0  0  0
 30 54  1  0  0  0  0
 30 55  1  0  0  0  0
M  END
> <Name>
20

> <IC50[uM]>
0.016

$$$$
20
  -OEChem-05192314333D
 Structure written by MMmdl.
 55 58  0     1  0  0  0  0  0999 V2000
   -6.3740   12.3524  -12.0161 C   0  0  0  0  0  0  0  0  0  0  0  0
   -6.5100   11.8065  -10.7374 C   0  0  0  0  0  0  0  0  0  0  0  0
   -7.7222   10.5841  -13.0265 C   0  0  0  0  0  0  0  0  0  0  0  0
   -6.9887   11.7756  -13.1353 C   0  0  0  0  0  0  0  0  0  0  0  0
   -7.8163   10.0177  -11.7563 C   0  0  3  0  0  0  0  0  0  0  0  0
   -7.2425   10.6185  -10.6022 C   0  0  0  0  0  0  0  0  0  0  0  0
   -7.6172    9.7487   -9.5090 C   0  0  0  0  0  0  0  0  0  0  0  0
   -8.2846    8.7289   -9.9848 N   0  0  0  0  0  0  0  0  0  0  0  0
   -8.4176    8.8659  -11.2967 N   0  0  0  0  0  0  0  0  0  0  0  0
   -7.3368    9.8884   -8.0257 C   0  0  0  0  0  0  0  0  0  0  0  0
   -4.4023   13.6480  -11.4578 N   0  0  0  0  0  0  0  0  0  0  0  0
   -3.4623   14.7747  -11.4948 C   0  0  0  0  0  0  0  0  0  0  0  0
   -5.5331   13.6158  -12.1961 C   0  0  0  0  0  0  0  0  0  0  0  0
   -5.8776   14.5022  -12.9731 O   0  0  0  0  0  0  0  0  0  0  0  0
   -5.9585   10.4860   -7.7354 C   0  0  0  0  0  0  0  0  0  0  0  0
   -5.8494   11.7555   -7.1596 C   0  0  0  0  0  0  0  0  0  0  0  0
   -4.5968   12.3068   -6.9148 C   0  0  0  0  0  0  0  0  0  0  0  0
   -3.4468   11.5860   -7.2370 C   0  0  0  0  0  0  0  0  0  0  0  0
   -3.5513   10.3089   -7.8057 C   0  0  0  0  0  0  0  0  0  0  0  0
   -4.8090    9.7654   -8.0523 C   0  0  0  0  0  0  0  0  0  0  0  0
   -2.0901   12.1669   -6.9801 C   0  0  0  0  0  0  0  0  0  0  0  0
   -1.7479   13.4121   -6.4872 C   0  0  0  0  0  0  0  0  0  0  0  0
   -0.3990   13.4663   -6.4328 N   0  0  0  0  0  0  0  0  0  0  0  0
    0.1869   12.3691   -6.8386 N   0  0  0  0  0  0  0  0  0  0  0  0
   -0.8034   11.5628   -7.1902 C   0  0  0  0  0  0  0  0  0  0  0  0
    0.4389   14.5894   -5.9640 C   0  0  0  0  0  0  0  0  0  0  0  0
    1.5042   14.2139   -4.8744 C   0  0  0  0  0  0  0  0  0  0  0  0
    2.6302   13.6295   -5.4977 O   0  0  0  0  0  0  0  0  0  0  0  0
    0.9501   13.1612   -3.9053 C   0  0  0  0  0  0  0  0  0  0  0  0
    2.0179   15.4484   -4.1037 C   0  0  0  0  0  0  0  0  0  0  0  0
   -6.0641   12.2854   -9.8782 H   0  0  0  0  0  0  0  0  0  0  0  0
   -8.1913   10.1279  -13.8857 H   0  0  0  0  0  0  0  0  0  0  0  0
   -6.8965   12.2561  -14.0981 H   0  0  0  0  0  0  0  0  0  0  0  0
   -6.8834    9.4622  -11.9330 H   0  0  0  0  0  0  0  0  0  0  0  0
   -8.0357    9.5970   -7.2556 H   0  0  0  0  0  0  0  0  0  0  0  0
   -2.6221   14.5745  -10.8136 H   0  0  0  0  0  0  0  0  0  0  0  0
   -3.0817   14.9010  -12.5191 H   0  0  0  0  0  0  0  0  0  0  0  0
   -3.9787   15.6934  -11.1797 H   0  0  0  0  0  0  0  0  0  0  0  0
   -5.2393   15.2056  -12.9549 H   0  0  0  0  0  0  0  0  0  0  0  0
   -6.7407   12.3094   -6.9043 H   0  0  0  0  0  0  0  0  0  0  0  0
   -4.5143   13.2904   -6.4764 H   0  0  0  0  0  0  0  0  0  0  0  0
   -3.4456   11.1385   -6.2321 H   0  0  0  0  0  0  0  0  0  0  0  0
   -2.6607    9.7496   -8.0512 H   0  0  0  0  0  0  0  0  0  0  0  0
   -4.8939    8.7820   -8.4907 H   0  0  0  0  0  0  0  0  0  0  0  0
   -2.4321   14.1965   -6.1989 H   0  0  0  0  0  0  0  0  0  0  0  0
   -0.6606   10.5688   -7.5878 H   0  0  0  0  0  0  0  0  0  0  0  0
    0.9713   15.0036   -6.8329 H   0  0  0  0  0  0  0  0  0  0  0  0
   -0.2256   15.3572   -5.5409 H   0  0  0  0  0  0  0  0  0  0  0  0
    3.2752   13.4021   -4.8384 H   0  0  0  0  0  0  0  0  0  0  0  0
    1.7145   12.9160   -3.1533 H   0  0  0  0  0  0  0  0  0  0  0  0
    0.0563   13.5598   -3.4030 H   0  0  0  0  0  0  0  0  0  0  0  0
    0.6818   12.2530   -4.4649 H   0  0  0  0  0  0  0  0  0  0  0  0
    2.7591   15.1317   -3.3552 H   0  0  0  0  0  0  0  0  0  0  0  0
    2.4859   16.1517   -4.8082 H   0  0  0  0  0  0  0  0  0  0  0  0
    1.1747   15.9421   -3.5985 H   0  0  0  0  0  0  0  0  0  0  0  0
  1  2  2  0  0  0  0
  1  4  1  0  0  0  0
  1 13  1  0  0  0  0
  2  6  1  0  0  0  0
  3  4  2  0  0  0  0
  3  5  1  0  0  0  0
  5  6  1  0  0  0  0
  5  9  1  0  0  0  0
  6  7  2  0  0  0  0
  7  8  1  0  0  0  0
  7 10  1  0  0  0  0
  8  9  2  0  0  0  0
 10 15  2  0  0  0  0
 11 12  1  0  0  0  0
 11 13  2  0  0  0  0
 13 14  1  0  0  0  0
 15 16  1  0  0  0  0
 15 20  1  0  0  0  0
 16 17  2  0  0  0  0
 17 18  1  0  0  0  0
 18 19  1  0  0  0  0
 18 21  1  0  0  0  0
 19 20  2  0  0  0  0
 21 22  2  0  0  0  0
 21 25  1  0  0  0  0
 22 23  1  0  0  0  0
 23 24  1  0  0  0  0
 23 26  1  0  0  0  0
 24 25  2  0  0  0  0
 26 27  1  0  0  0  0
 27 28  1  0  0  0  0
 27 29  1  0  0  0  0
 27 30  1  0  0  0  0
  2 31  1  0  0  0  0
  3 32  1  0  0  0  0
  4 33  1  0  0  0  0
  5 34  1  0  0  0  0
 10 35  1  0  0  0  0
 12 36  1  0  0  0  0
 12 37  1  0  0  0  0
 12 38  1  0  0  0  0
 14 39  1  0  0  0  0
 16 40  1  0  0  0  0
 17 41  1  0  0  0  0
 18 42  1  0  0  0  0
 19 43  1  0  0  0  0
 20 44  1  0  0  0  0
 22 45  1  0  0  0  0
 25 46  1  0  0  0  0
 26 47  1  0  0  0  0
 26 48  1  0  0  0  0
 28 49  1  0  0  0  0
 29 50  1  0  0  0  0
 29 51  1  0  0  0  0
 29 52  1  0  0  0  0
 30 53  1  0  0  0  0
 30 54  1  0  0  0  0
 30 55  1  0  0  0  0
M  END
> <Name>
20

> <IC50[uM]>
0.016

$$$$
20
  -OEChem-05192314333D
 Structure written by MMmdl.
 55 58  0     0  0  0  0  0  0999 V2000
   -6.3740   12.3524  -12.0161 C   0  0  0  0  0  0  0  0  0  0  0  0
   -6.5100   11.8065  -10.7374 C   0  0  0  0  0  0  0  0  0  0  0  0
   -7.7222   10.5841  -13.0265 C   0  0  0  0  0  0  0  0  0  0  0  0
   -6.9887   11.7756  -13.1353 C   0  0  0  0  0  0  0  0  0  0  0  0
   -7.8163   10.0177  -11.7563 C   0  0  0  0  0  0  0  0  0  0  0  0
   -7.2425   10.6185  -10.6022 C   0  0  0  0  0  0  0  0  0  0  0  0
   -7.6172    9.7487   -9.5090 C   0  0  0  0  0  0  0  0  0  0  0  0
   -8.2846    8.7289   -9.9848 N   0  0  0  0  0  0  0  0  0  0  0  0
   -8.4176    8.8659  -11.2967 N   0  0  0  0  0  0  0  0  0  0  0  0
   -7.3368    9.8884   -8.0257 C   0  0  0  0  0  0  0  0  0  0  0  0
   -4.4023   13.6480  -11.4578 N   0  0  0  0  0  0  0  0  0  0  0  0
   -3.4623   14.7747  -11.4948 C   0  0  0  0  0  0  0  0  0  0  0  0
   -5.5331   13.6158  -12.1961 C   0  0  0  0  0  0  0  0  0  0  0  0
   -5.8776   14.5022  -12.9731 O   0  0  0  0  0  0  0  0  0  0  0  0
   -5.9585   10.4860   -7.7354 C   0  0  0  0  0  0  0  0  0  0  0  0
   -5.8494   11.7555   -7.1596 C   0  0  0  0  0  0  0  0  0  0  0  0
   -4.5968   12.3068   -6.9148 C   0  0  0  0  0  0  0  0  0  0  0  0
   -3.4468   11.5860   -7.2370 C   0  0  0  0  0  0  0  0  0  0  0  0
   -3.5513   10.3089   -7.8057 C   0  0  0  0  0  0  0  0  0  0  0  0
   -4.8090    9.7654   -8.0523 C   0  0  0  0  0  0  0  0  0  0  0  0
   -2.0901   12.1669   -6.9801 C   0  0  0  0  0  0  0  0  0  0  0  0
   -1.7479   13.4121   -6.4872 C   0  0  0  0  0  0  0  0  0  0  0  0
   -0.3990   13.4663   -6.4328 N   0  0  0  0  0  0  0  0  0  0  0  0
    0.1869   12.3691   -6.8386 N   0  0  0  0  0  0  0  0  0  0  0  0
   -0.8034   11.5628   -7.1902 C   0  0  0  0  0  0  0  0  0  0  0  0
    0.4389   14.5894   -5.9640 C   0  0  0  0  0  0  0  0  0  0  0  0
    1.5042   14.2139   -4.8744 C   0  0  0  0  0  0  0  0  0  0  0  0
    2.6302   13.6295   -5.4977 O   0  0  0  0  0  0  0  0  0  0  0  0
    0.9501   13.1612   -3.9053 C   0  0  0  0  0  0  0  0  0  0  0  0
    2.0179   15.4484   -4.1037 C   0  0  0  0  0  0  0  0  0  0  0  0
   -6.0641   12.2854   -9.8782 H   0  0  0  0  0  0  0  0  0  0  0  0
   -8.1913   10.1279  -13.8857 H   0  0  0  0  0  0  0  0  0  0  0  0
   -7.6795   12.5319  -13.5364 H   0  0  0  0  0  0  0  0  0  0  0  0
   -6.1895   11.5845  -13.8665 H   0  0  0  0  0  0  0  0  0  0  0  0
   -8.0357    9.5970   -7.2556 H   0  0  0  0  0  0  0  0  0  0  0  0
   -2.6221   14.5745  -10.8136 H   0  0  0  0  0  0  0  0  0  0  0  0
   -3.0817   14.9010  -12.5191 H   0  0  0  0  0  0  0  0  0  0  0  0
   -3.9787   15.6934  -11.1797 H   0  0  0  0  0  0  0  0  0  0  0  0
   -5.2393   15.2056  -12.9549 H   0  0  0  0  0  0  0  0  0  0  0  0
   -6.7407   12.3094   -6.9043 H   0  0  0  0  0  0  0  0  0  0  0  0
   -4.5143   13.2904   -6.4764 H   0  0  0  0  0  0  0  0  0  0  0  0
   -3.4456   11.1385   -6.2321 H   0  0  0  0  0  0  0  0  0  0  0  0
   -2.6607    9.7496   -8.0512 H   0  0  0  0  0  0  0  0  0  0  0  0
   -4.8939    8.7820   -8.4907 H   0  0  0  0  0  0  0  0  0  0  0  0
   -2.4321   14.1965   -6.1989 H   0  0  0  0  0  0  0  0  0  0  0  0
   -0.6606   10.5688   -7.5878 H   0  0  0  0  0  0  0  0  0  0  0  0
    0.9713   15.0036   -6.8329 H   0  0  0  0  0  0  0  0  0  0  0  0
   -0.2256   15.3572   -5.5409 H   0  0  0  0  0  0  0  0  0  0  0  0
    3.2752   13.4021   -4.8384 H   0  0  0  0  0  0  0  0  0  0  0  0
    1.7145   12.9160   -3.1533 H   0  0  0  0  0  0  0  0  0  0  0  0
    0.0563   13.5598   -3.4030 H   0  0  0  0  0  0  0  0  0  0  0  0
    0.6818   12.2530   -4.4649 H   0  0  0  0  0  0  0  0  0  0  0  0
    2.7591   15.1317   -3.3552 H   0  0  0  0  0  0  0  0  0  0  0  0
    2.4859   16.1517   -4.8082 H   0  0  0  0  0  0  0  0  0  0  0  0
    1.1747   15.9421   -3.5985 H   0  0  0  0  0  0  0  0  0  0  0  0
  1  2  2  0  0  0  0
  1  4  1  0  0  0  0
  1 13  1  0  0  0  0
  2  6  1  0  0  0  0
  3  4  1  0  0  0  0
  3  5  2  0  0  0  0
  5  6  1  0  0  0  0
  5  9  1  0  0  0  0
  6  7  2  0  0  0  0
  7  8  1  0  0  0  0
  7 10  1  0  0  0  0
  8  9  2  0  0  0  0
 10 15  2  0  0  0  0
 11 12  1  0  0  0  0
 11 13  2  0  0  0  0
 13 14  1  0  0  0  0
 15 16  1  0  0  0  0
 15 20  1  0  0  0  0
 16 17  2  0  0  0  0
 17 18  1  0  0  0  0
 18 19  1  0  0  0  0
 18 21  1  0  0  0  0
 19 20  2  0  0  0  0
 21 22  2  0  0  0  0
 21 25  1  0  0  0  0
 22 23  1  0  0  0  0
 23 24  1  0  0  0  0
 23 26  1  0  0  0  0
 24 25  2  0  0  0  0
 26 27  1  0  0  0  0
 27 28  1  0  0  0  0
 27 29  1  0  0  0  0
 27 30  1  0  0  0  0
  2 31  1  0  0  0  0
  3 32  1  0  0  0  0
  4 33  1  0  0  0  0
  4 34  1  0  0  0  0
 10 35  1  0  0  0  0
 12 36  1  0  0  0  0
 12 37  1  0  0  0  0
 12 38  1  0  0  0  0
 14 39  1  0  0  0  0
 16 40  1  0  0  0  0
 17 41  1  0  0  0  0
 18 42  1  0  0  0  0
 19 43  1  0  0  0  0
 20 44  1  0  0  0  0
 22 45  1  0  0  0  0
 25 46  1  0  0  0  0
 26 47  1  0  0  0  0
 26 48  1  0  0  0  0
 28 49  1  0  0  0  0
 29 50  1  0  0  0  0
 29 51  1  0  0  0  0
 29 52  1  0  0  0  0
 30 53  1  0  0  0  0
 30 54  1  0  0  0  0
 30 55  1  0  0  0  0
M  END
> <Name>
20

> <IC50[uM]>
0.016

$$$$
20
  -OEChem-05192314333D
 Structure written by MMmdl.
 55 58  0     1  0  0  0  0  0999 V2000
   -6.3740   12.3524  -12.0161 C   0  0  0  0  0  0  0  0  0  0  0  0
   -6.5100   11.8065  -10.7374 C   0  0  0  0  0  0  0  0  0  0  0  0
   -7.7222   10.5841  -13.0265 C   0  0  0  0  0  0  0  0  0  0  0  0
   -6.9887   11.7756  -13.1353 C   0  0  0  0  0  0  0  0  0  0  0  0
   -7.8163   10.0177  -11.7563 C   0  0  3  0  0  0  0  0  0  0  0  0
   -7.2425   10.6185  -10.6022 C   0  0  0  0  0  0  0  0  0  0  0  0
   -7.6172    9.7487   -9.5090 C   0  0  0  0  0  0  0  0  0  0  0  0
   -8.2846    8.7289   -9.9848 N   0  0  0  0  0  0  0  0  0  0  0  0
   -8.4176    8.8659  -11.2967 N   0  0  0  0  0  0  0  0  0  0  0  0
   -7.3368    9.8884   -8.0257 C   0  0  0  0  0  0  0  0  0  0  0  0
   -4.4023   13.6480  -11.4578 N   0  0  0  0  0  0  0  0  0  0  0  0
   -3.4623   14.7747  -11.4948 C   0  0  0  0  0  0  0  0  0  0  0  0
   -5.5331   13.6158  -12.1961 C   0  0  0  0  0  0  0  0  0  0  0  0
   -5.8776   14.5022  -12.9731 O   0  0  0  0  0  0  0  0  0  0  0  0
   -5.9585   10.4860   -7.7354 C   0  0  0  0  0  0  0  0  0  0  0  0
   -5.8494   11.7555   -7.1596 C   0  0  0  0  0  0  0  0  0  0  0  0
   -4.5968   12.3068   -6.9148 C   0  0  0  0  0  0  0  0  0  0  0  0
   -3.4468   11.5860   -7.2370 C   0  0  0  0  0  0  0  0  0  0  0  0
   -3.5513   10.3089   -7.8057 C   0  0  0  0  0  0  0  0  0  0  0  0
   -4.8090    9.7654   -8.0523 C   0  0  0  0  0  0  0  0  0  0  0  0
   -2.0901   12.1669   -6.9801 C   0  0  0  0  0  0  0  0  0  0  0  0
   -1.7479   13.4121   -6.4872 C   0  0  0  0  0  0  0  0  0  0  0  0
   -0.3990   13.4663   -6.4328 N   0  0  0  0  0  0  0  0  0  0  0  0
    0.1869   12.3691   -6.8386 N   0  0  0  0  0  0  0  0  0  0  0  0
   -0.8034   11.5628   -7.1902 C   0  0  0  0  0  0  0  0  0  0  0  0
    0.4389   14.5894   -5.9640 C   0  0  0  0  0  0  0  0  0  0  0  0
    1.5042   14.2139   -4.8744 C   0  0  0  0  0  0  0  0  0  0  0  0
    2.6302   13.6295   -5.4977 O   0  0  0  0  0  0  0  0  0  0  0  0
    0.9501   13.1612   -3.9053 C   0  0  0  0  0  0  0  0  0  0  0  0
    2.0179   15.4484   -4.1037 C   0  0  0  0  0  0  0  0  0  0  0  0
   -6.0641   12.2854   -9.8782 H   0  0  0  0  0  0  0  0  0  0  0  0
   -8.1913   10.1279  -13.8857 H   0  0  0  0  0  0  0  0  0  0  0  0
   -6.8965   12.2561  -14.0981 H   0  0  0  0  0  0  0  0  0  0  0  0
   -6.8834    9.4622  -11.9330 H   0  0  0  0  0  0  0  0  0  0  0  0
   -8.0357    9.5970   -7.2556 H   0  0  0  0  0  0  0  0  0  0  0  0
   -2.6221   14.5745  -10.8136 H   0  0  0  0  0  0  0  0  0  0  0  0
   -3.0817   14.9010  -12.5191 H   0  0  0  0  0  0  0  0  0  0  0  0
   -3.9787   15.6934  -11.1797 H   0  0  0  0  0  0  0  0  0  0  0  0
   -5.2393   15.2056  -12.9549 H   0  0  0  0  0  0  0  0  0  0  0  0
   -6.7407   12.3094   -6.9043 H   0  0  0  0  0  0  0  0  0  0  0  0
   -4.5143   13.2904   -6.4764 H   0  0  0  0  0  0  0  0  0  0  0  0
   -2.6607    9.7496   -8.0512 H   0  0  0  0  0  0  0  0  0  0  0  0
   -4.8619    8.8217   -7.4897 H   0  0  0  0  0  0  0  0  0  0  0  0
   -4.8560    9.5526   -9.1305 H   0  0  0  0  0  0  0  0  0  0  0  0
   -2.4321   14.1965   -6.1989 H   0  0  0  0  0  0  0  0  0  0  0  0
   -0.6606   10.5688   -7.5878 H   0  0  0  0  0  0  0  0  0  0  0  0
    0.9713   15.0036   -6.8329 H   0  0  0  0  0  0  0  0  0  0  0  0
   -0.2256   15.3572   -5.5409 H   0  0  0  0  0  0  0  0  0  0  0  0
    3.2752   13.4021   -4.8384 H   0  0  0  0  0  0  0  0  0  0  0  0
    1.7145   12.9160   -3.1533 H   0  0  0  0  0  0  0  0  0  0  0  0
    0.0563   13.5598   -3.4030 H   0  0  0  0  0  0  0  0  0  0  0  0
    0.6818   12.2530   -4.4649 H   0  0  0  0  0  0  0  0  0  0  0  0
    2.7591   15.1317   -3.3552 H   0  0  0  0  0  0  0  0  0  0  0  0
    2.4859   16.1517   -4.8082 H   0  0  0  0  0  0  0  0  0  0  0  0
    1.1747   15.9421   -3.5985 H   0  0  0  0  0  0  0  0  0  0  0  0
  1  2  2  0  0  0  0
  1  4  1  0  0  0  0
  1 13  1  0  0  0  0
  2  6  1  0  0  0  0
  3  4  2  0  0  0  0
  3  5  1  0  0  0  0
  5  6  1  0  0  0  0
  5  9  1  0  0  0  0
  6  7  2  0  0  0  0
  7  8  1  0  0  0  0
  7 10  1  0  0  0  0
  8  9  2  0  0  0  0
 10 15  2  3  0  0  0
 11 12  1  0  0  0  0
 11 13  2  0  0  0  0
 13 14  1  0  0  0  0
 15 16  1  0  0  0  0
 15 20  1  0  0  0  0
 16 17  2  0  0  0  0
 17 18  1  0  0  0  0
 18 19  2  0  0  0  0
 18 21  1  0  0  0  0
 19 20  1  0  0  0  0
 21 22  2  0  0  0  0
 21 25  1  0  0  0  0
 22 23  1  0  0  0  0
 23 24  1  0  0  0  0
 23 26  1  0  0  0  0
 24 25  2  0  0  0  0
 26 27  1  0  0  0  0
 27 28  1  0  0  0  0
 27 29  1  0  0  0  0
 27 30  1  0  0  0  0
  2 31  1  0  0  0  0
  3 32  1  0  0  0  0
  4 33  1  0  0  0  0
  5 34  1  0  0  0  0
 10 35  1  0  0  0  0
 12 36  1  0  0  0  0
 12 37  1  0  0  0  0
 12 38  1  0  0  0  0
 14 39  1  0  0  0  0
 16 40  1  0  0  0  0
 17 41  1  0  0  0  0
 19 42  1  0  0  0  0
 20 43  1  0  0  0  0
 20 44  1  0  0  0  0
 22 45  1  0  0  0  0
 25 46  1  0  0  0  0
 26 47  1  0  0  0  0
 26 48  1  0  0  0  0
 28 49  1  0  0  0  0
 29 50  1  0  0  0  0
 29 51  1  0  0  0  0
 29 52  1  0  0  0  0
 30 53  1  0  0  0  0
 30 54  1  0  0  0  0
 30 55  1  0  0  0  0
M  END
> <Name>
20

> <IC50[uM]>
0.016

$$$$
20
  -OEChem-05192314333D
 Structure written by MMmdl.
 55 58  0     0  0  0  0  0  0999 V2000
   -6.3740   12.3524  -12.0161 C   0  0  0  0  0  0  0  0  0  0  0  0
   -6.5100   11.8065  -10.7374 C   0  0  0  0  0  0  0  0  0  0  0  0
   -7.7222   10.5841  -13.0265 C   0  0  0  0  0  0  0  0  0  0  0  0
   -6.9887   11.7756  -13.1353 C   0  0  0  0  0  0  0  0  0  0  0  0
   -7.8163   10.0177  -11.7563 C   0  0  0  0  0  0  0  0  0  0  0  0
   -7.2425   10.6185  -10.6022 C   0  0  0  0  0  0  0  0  0  0  0  0
   -7.6172    9.7487   -9.5090 C   0  0  0  0  0  0  0  0  0  0  0  0
   -8.2846    8.7289   -9.9848 N   0  0  0  0  0  0  0  0  0  0  0  0
   -8.4176    8.8659  -11.2967 N   0  0  0  0  0  0  0  0  0  0  0  0
   -7.3368    9.8884   -8.0257 C   0  0  0  0  0  0  0  0  0  0  0  0
   -4.4023   13.6480  -11.4578 N   0  0  0  0  0  0  0  0  0  0  0  0
   -3.4623   14.7747  -11.4948 C   0  0  0  0  0  0  0  0  0  0  0  0
   -5.5331   13.6158  -12.1961 C   0  0  0  0  0  0  0  0  0  0  0  0
   -5.8776   14.5022  -12.9731 O   0  0  0  0  0  0  0  0  0  0  0  0
   -5.9585   10.4860   -7.7354 C   0  0  0  0  0  0  0  0  0  0  0  0
   -5.8494   11.7555   -7.1596 C   0  0  0  0  0  0  0  0  0  0  0  0
   -4.5968   12.3068   -6.9148 C   0  0  0  0  0  0  0  0  0  0  0  0
   -3.4468   11.5860   -7.2370 C   0  0  0  0  0  0  0  0  0  0  0  0
   -3.5513   10.3089   -7.8057 C   0  0  0  0  0  0  0  0  0  0  0  0
   -4.8090    9.7654   -8.0523 C   0  0  0  0  0  0  0  0  0  0  0  0
   -2.0901   12.1669   -6.9801 C   0  0  0  0  0  0  0  0  0  0  0  0
   -1.7479   13.4121   -6.4872 C   0  0  0  0  0  0  0  0  0  0  0  0
   -0.3990   13.4663   -6.4328 N   0  0  0  0  0  0  0  0  0  0  0  0
    0.1869   12.3691   -6.8386 N   0  0  0  0  0  0  0  0  0  0  0  0
   -0.8034   11.5628   -7.1902 C   0  0  0  0  0  0  0  0  0  0  0  0
    0.4389   14.5894   -5.9640 C   0  0  0  0  0  0  0  0  0  0  0  0
    1.5042   14.2139   -4.8744 C   0  0  0  0  0  0  0  0  0  0  0  0
    2.6302   13.6295   -5.4977 O   0  0  0  0  0  0  0  0  0  0  0  0
    0.9501   13.1612   -3.9053 C   0  0  0  0  0  0  0  0  0  0  0  0
    2.0179   15.4484   -4.1037 C   0  0  0  0  0  0  0  0  0  0  0  0
   -6.0641   12.2854   -9.8782 H   0  0  0  0  0  0  0  0  0  0  0  0
   -8.1913   10.1279  -13.8857 H   0  0  0  0  0  0  0  0  0  0  0  0
   -7.6795   12.5319  -13.5364 H   0  0  0  0  0  0  0  0  0  0  0  0
   -6.1895   11.5845  -13.8665 H   0  0  0  0  0  0  0  0  0  0  0  0
   -8.0357    9.5970   -7.2556 H   0  0  0  0  0  0  0  0  0  0  0  0
   -2.6221   14.5745  -10.8136 H   0  0  0  0  0  0  0  0  0  0  0  0
   -3.0817   14.9010  -12.5191 H   0  0  0  0  0  0  0  0  0  0  0  0
   -3.9787   15.6934  -11.1797 H   0  0  0  0  0  0  0  0  0  0  0  0
   -5.2393   15.2056  -12.9549 H   0  0  0  0  0  0  0  0  0  0  0  0
   -6.7407   12.3094   -6.9043 H   0  0  0  0  0  0  0  0  0  0  0  0
   -4.5143   13.2904   -6.4764 H   0  0  0  0  0  0  0  0  0  0  0  0
   -2.6607    9.7496   -8.0512 H   0  0  0  0  0  0  0  0  0  0  0  0
   -4.8619    8.8217   -7.4897 H   0  0  0  0  0  0  0  0  0  0  0  0
   -4.8560    9.5526   -9.1305 H   0  0  0  0  0  0  0  0  0  0  0  0
   -2.4321   14.1965   -6.1989 H   0  0  0  0  0  0  0  0  0  0  0  0
   -0.6606   10.5688   -7.5878 H   0  0  0  0  0  0  0  0  0  0  0  0
    0.9713   15.0036   -6.8329 H   0  0  0  0  0  0  0  0  0  0  0  0
   -0.2256   15.3572   -5.5409 H   0  0  0  0  0  0  0  0  0  0  0  0
    3.2752   13.4021   -4.8384 H   0  0  0  0  0  0  0  0  0  0  0  0
    1.7145   12.9160   -3.1533 H   0  0  0  0  0  0  0  0  0  0  0  0
    0.0563   13.5598   -3.4030 H   0  0  0  0  0  0  0  0  0  0  0  0
    0.6818   12.2530   -4.4649 H   0  0  0  0  0  0  0  0  0  0  0  0
    2.7591   15.1317   -3.3552 H   0  0  0  0  0  0  0  0  0  0  0  0
    2.4859   16.1517   -4.8082 H   0  0  0  0  0  0  0  0  0  0  0  0
    1.1747   15.9421   -3.5985 H   0  0  0  0  0  0  0  0  0  0  0  0
  1  2  2  0  0  0  0
  1  4  1  0  0  0  0
  1 13  1  0  0  0  0
  2  6  1  0  0  0  0
  3  4  1  0  0  0  0
  3  5  2  0  0  0  0
  5  6  1  0  0  0  0
  5  9  1  0  0  0  0
  6  7  2  0  0  0  0
  7  8  1  0  0  0  0
  7 10  1  0  0  0  0
  8  9  2  0  0  0  0
 10 15  2  3  0  0  0
 11 12  1  0  0  0  0
 11 13  2  0  0  0  0
 13 14  1  0  0  0  0
 15 16  1  0  0  0  0
 15 20  1  0  0  0  0
 16 17  2  0  0  0  0
 17 18  1  0  0  0  0
 18 19  2  0  0  0  0
 18 21  1  0  0  0  0
 19 20  1  0  0  0  0
 21 22  2  0  0  0  0
 21 25  1  0  0  0  0
 22 23  1  0  0  0  0
 23 24  1  0  0  0  0
 23 26  1  0  0  0  0
 24 25  2  0  0  0  0
 26 27  1  0  0  0  0
 27 28  1  0  0  0  0
 27 29  1  0  0  0  0
 27 30  1  0  0  0  0
  2 31  1  0  0  0  0
  3 32  1  0  0  0  0
  4 33  1  0  0  0  0
  4 34  1  0  0  0  0
 10 35  1  0  0  0  0
 12 36  1  0  0  0  0
 12 37  1  0  0  0  0
 12 38  1  0  0  0  0
 14 39  1  0  0  0  0
 16 40  1  0  0  0  0
 17 41  1  0  0  0  0
 19 42  1  0  0  0  0
 20 43  1  0  0  0  0
 20 44  1  0  0  0  0
 22 45  1  0  0  0  0
 25 46  1  0  0  0  0
 26 47  1  0  0  0  0
 26 48  1  0  0  0  0
 28 49  1  0  0  0  0
 29 50  1  0  0  0  0
 29 51  1  0  0  0  0
 29 52  1  0  0  0  0
 30 53  1  0  0  0  0
 30 54  1  0  0  0  0
 30 55  1  0  0  0  0
M  END
> <Name>
20

> <IC50[uM]>
0.016

$$$$
20
  -OEChem-05192314333D
 Structure written by MMmdl.
 55 58  0     0  0  0  0  0  0999 V2000
   -6.3740   12.3524  -12.0161 C   0  0  0  0  0  0  0  0  0  0  0  0
   -6.5100   11.8065  -10.7374 C   0  0  0  0  0  0  0  0  0  0  0  0
   -7.7222   10.5841  -13.0265 C   0  0  0  0  0  0  0  0  0  0  0  0
   -6.9887   11.7756  -13.1353 C   0  0  0  0  0  0  0  0  0  0  0  0
   -7.8163   10.0177  -11.7563 C   0  0  0  0  0  0  0  0  0  0  0  0
   -7.2425   10.6185  -10.6022 C   0  0  0  0  0  0  0  0  0  0  0  0
   -7.6172    9.7487   -9.5090 C   0  0  0  0  0  0  0  0  0  0  0  0
   -8.2846    8.7289   -9.9848 N   0  0  0  0  0  0  0  0  0  0  0  0
   -8.4176    8.8659  -11.2967 N   0  0  0  0  0  0  0  0  0  0  0  0
   -7.3368    9.8884   -8.0257 C   0  0  0  0  0  0  0  0  0  0  0  0
   -4.4023   13.6480  -11.4578 N   0  0  0  0  0  0  0  0  0  0  0  0
   -3.4623   14.7747  -11.4948 C   0  0  0  0  0  0  0  0  0  0  0  0
   -5.5331   13.6158  -12.1961 C   0  0  0  0  0  0  0  0  0  0  0  0
   -5.8776   14.5022  -12.9731 O   0  0  0  0  0  0  0  0  0  0  0  0
   -5.9585   10.4860   -7.7354 C   0  0  0  0  0  0  0  0  0  0  0  0
   -5.8494   11.7555   -7.1596 C   0  0  0  0  0  0  0  0  0  0  0  0
   -4.5968   12.3068   -6.9148 C   0  0  0  0  0  0  0  0  0  0  0  0
   -3.4468   11.5860   -7.2370 C   0  0  0  0  0  0  0  0  0  0  0  0
   -3.5513   10.3089   -7.8057 C   0  0  0  0  0  0  0  0  0  0  0  0
   -4.8090    9.7654   -8.0523 C   0  0  0  0  0  0  0  0  0  0  0  0
   -2.0901   12.1669   -6.9801 C   0  0  0  0  0  0  0  0  0  0  0  0
   -1.7479   13.4121   -6.4872 C   0  0  0  0  0  0  0  0  0  0  0  0
   -0.3990   13.4663   -6.4328 N   0  0  0  0  0  0  0  0  0  0  0  0
    0.1869   12.3691   -6.8386 N   0  0  0  0  0  0  0  0  0  0  0  0
   -0.8034   11.5628   -7.1902 C   0  0  0  0  0  0  0  0  0  0  0  0
    0.4389   14.5894   -5.9640 C   0  0  0  0  0  0  0  0  0  0  0  0
    1.5042   14.2139   -4.8744 C   0  0  0  0  0  0  0  0  0  0  0  0
    2.6302   13.6295   -5.4977 O   0  0  0  0  0  0  0  0  0  0  0  0
    0.9501   13.1612   -3.9053 C   0  0  0  0  0  0  0  0  0  0  0  0
    2.0179   15.4484   -4.1037 C   0  0  0  0  0  0  0  0  0  0  0  0
   -5.4969   11.6111  -10.3560 H   0  0  0  0  0  0  0  0  0  0  0  0
   -6.9986   12.5652  -10.1084 H   0  0  0  0  0  0  0  0  0  0  0  0
   -8.1913   10.1279  -13.8857 H   0  0  0  0  0  0  0  0  0  0  0  0
   -6.8965   12.2561  -14.0981 H   0  0  0  0  0  0  0  0  0  0  0  0
   -8.0357    9.5970   -7.2556 H   0  0  0  0  0  0  0  0  0  0  0  0
   -2.6221   14.5745  -10.8136 H   0  0  0  0  0  0  0  0  0  0  0  0
   -3.0817   14.9010  -12.5191 H   0  0  0  0  0  0  0  0  0  0  0  0
   -3.9787   15.6934  -11.1797 H   0  0  0  0  0  0  0  0  0  0  0  0
   -5.2393   15.2056  -12.9549 H   0  0  0  0  0  0  0  0  0  0  0  0
   -6.7407   12.3094   -6.9043 H   0  0  0  0  0  0  0  0  0  0  0  0
   -4.5143   13.2904   -6.4764 H   0  0  0  0  0  0  0  0  0  0  0  0
   -3.4456   11.1385   -6.2321 H   0  0  0  0  0  0  0  0  0  0  0  0
   -2.6607    9.7496   -8.0512 H   0  0  0  0  0  0  0  0  0  0  0  0
   -4.8939    8.7820   -8.4907 H   0  0  0  0  0  0  0  0  0  0  0  0
   -2.4321   14.1965   -6.1989 H   0  0  0  0  0  0  0  0  0  0  0  0
   -0.6606   10.5688   -7.5878 H   0  0  0  0  0  0  0  0  0  0  0  0
    0.9713   15.0036   -6.8329 H   0  0  0  0  0  0  0  0  0  0  0  0
   -0.2256   15.3572   -5.5409 H   0  0  0  0  0  0  0  0  0  0  0  0
    3.2752   13.4021   -4.8384 H   0  0  0  0  0  0  0  0  0  0  0  0
    1.7145   12.9160   -3.1533 H   0  0  0  0  0  0  0  0  0  0  0  0
    0.0563   13.5598   -3.4030 H   0  0  0  0  0  0  0  0  0  0  0  0
    0.6818   12.2530   -4.4649 H   0  0  0  0  0  0  0  0  0  0  0  0
    2.7591   15.1317   -3.3552 H   0  0  0  0  0  0  0  0  0  0  0  0
    2.4859   16.1517   -4.8082 H   0  0  0  0  0  0  0  0  0  0  0  0
    1.1747   15.9421   -3.5985 H   0  0  0  0  0  0  0  0  0  0  0  0
  1  2  1  0  0  0  0
  1  4  2  0  0  0  0
  1 13  1  0  0  0  0
  2  6  1  0  0  0  0
  3  4  1  0  0  0  0
  3  5  2  0  0  0  0
  5  6  1  0  0  0  0
  5  9  1  0  0  0  0
  6  7  2  0  0  0  0
  7  8  1  0  0  0  0
  7 10  1  0  0  0  0
  8  9  2  0  0  0  0
 10 15  2  0  0  0  0
 11 12  1  0  0  0  0
 11 13  2  0  0  0  0
 13 14  1  0  0  0  0
 15 16  1  0  0  0  0
 15 20  1  0  0  0  0
 16 17  2  0  0  0  0
 17 18  1  0  0  0  0
 18 19  1  0  0  0  0
 18 21  1  0  0  0  0
 19 20  2  0  0  0  0
 21 22  2  0  0  0  0
 21 25  1  0  0  0  0
 22 23  1  0  0  0  0
 23 24  1  0  0  0  0
 23 26  1  0  0  0  0
 24 25  2  0  0  0  0
 26 27  1  0  0  0  0
 27 28  1  0  0  0  0
 27 29  1  0  0  0  0
 27 30  1  0  0  0  0
  2 31  1  0  0  0  0
  2 32  1  0  0  0  0
  3 33  1  0  0  0  0
  4 34  1  0  0  0  0
 10 35  1  0  0  0  0
 12 36  1  0  0  0  0
 12 37  1  0  0  0  0
 12 38  1  0  0  0  0
 14 39  1  0  0  0  0
 16 40  1  0  0  0  0
 17 41  1  0  0  0  0
 18 42  1  0  0  0  0
 19 43  1  0  0  0  0
 20 44  1  0  0  0  0
 22 45  1  0  0  0  0
 25 46  1  0  0  0  0
 26 47  1  0  0  0  0
 26 48  1  0  0  0  0
 28 49  1  0  0  0  0
 29 50  1  0  0  0  0
 29 51  1  0  0  0  0
 29 52  1  0  0  0  0
 30 53  1  0  0  0  0
 30 54  1  0  0  0  0
 30 55  1  0  0  0  0
M  END
> <Name>
20

> <IC50[uM]>
0.016

$$$$
20
  -OEChem-05192314333D
 Structure written by MMmdl.
 55 58  0     0  0  0  0  0  0999 V2000
   -6.3740   12.3524  -12.0161 C   0  0  0  0  0  0  0  0  0  0  0  0
   -6.5100   11.8065  -10.7374 C   0  0  0  0  0  0  0  0  0  0  0  0
   -7.7222   10.5841  -13.0265 C   0  0  0  0  0  0  0  0  0  0  0  0
   -6.9887   11.7756  -13.1353 C   0  0  0  0  0  0  0  0  0  0  0  0
   -7.8163   10.0177  -11.7563 C   0  0  0  0  0  0  0  0  0  0  0  0
   -7.2425   10.6185  -10.6022 C   0  0  0  0  0  0  0  0  0  0  0  0
   -7.6172    9.7487   -9.5090 C   0  0  0  0  0  0  0  0  0  0  0  0
   -8.2846    8.7289   -9.9848 N   0  0  0  0  0  0  0  0  0  0  0  0
   -8.4176    8.8659  -11.2967 N   0  0  0  0  0  0  0  0  0  0  0  0
   -7.3368    9.8884   -8.0257 C   0  0  0  0  0  0  0  0  0  0  0  0
   -4.4023   13.6480  -11.4578 N   0  0  0  0  0  0  0  0  0  0  0  0
   -3.4623   14.7747  -11.4948 C   0  0  0  0  0  0  0  0  0  0  0  0
   -5.5331   13.6158  -12.1961 C   0  0  0  0  0  0  0  0  0  0  0  0
   -5.8776   14.5022  -12.9731 O   0  0  0  0  0  0  0  0  0  0  0  0
   -5.9585   10.4860   -7.7354 C   0  0  0  0  0  0  0  0  0  0  0  0
   -5.8494   11.7555   -7.1596 C   0  0  0  0  0  0  0  0  0  0  0  0
   -4.5968   12.3068   -6.9148 C   0  0  0  0  0  0  0  0  0  0  0  0
   -3.4468   11.5860   -7.2370 C   0  0  0  0  0  0  0  0  0  0  0  0
   -3.5513   10.3089   -7.8057 C   0  0  0  0  0  0  0  0  0  0  0  0
   -4.8090    9.7654   -8.0523 C   0  0  0  0  0  0  0  0  0  0  0  0
   -2.0901   12.1669   -6.9801 C   0  0  0  0  0  0  0  0  0  0  0  0
   -1.7479   13.4121   -6.4872 C   0  0  0  0  0  0  0  0  0  0  0  0
   -0.3990   13.4663   -6.4328 N   0  0  0  0  0  0  0  0  0  0  0  0
    0.1869   12.3691   -6.8386 N   0  0  0  0  0  0  0  0  0  0  0  0
   -0.8034   11.5628   -7.1902 C   0  0  0  0  0  0  0  0  0  0  0  0
    0.4389   14.5894   -5.9640 C   0  0  0  0  0  0  0  0  0  0  0  0
    1.5042   14.2139   -4.8744 C   0  0  0  0  0  0  0  0  0  0  0  0
    2.6302   13.6295   -5.4977 O   0  0  0  0  0  0  0  0  0  0  0  0
    0.9501   13.1612   -3.9053 C   0  0  0  0  0  0  0  0  0  0  0  0
    2.0179   15.4484   -4.1037 C   0  0  0  0  0  0  0  0  0  0  0  0
   -5.4969   11.6111  -10.3560 H   0  0  0  0  0  0  0  0  0  0  0  0
   -6.9986   12.5652  -10.1084 H   0  0  0  0  0  0  0  0  0  0  0  0
   -8.1913   10.1279  -13.8857 H   0  0  0  0  0  0  0  0  0  0  0  0
   -6.8965   12.2561  -14.0981 H   0  0  0  0  0  0  0  0  0  0  0  0
   -8.0357    9.5970   -7.2556 H   0  0  0  0  0  0  0  0  0  0  0  0
   -2.6221   14.5745  -10.8136 H   0  0  0  0  0  0  0  0  0  0  0  0
   -3.0817   14.9010  -12.5191 H   0  0  0  0  0  0  0  0  0  0  0  0
   -3.9787   15.6934  -11.1797 H   0  0  0  0  0  0  0  0  0  0  0  0
   -5.2393   15.2056  -12.9549 H   0  0  0  0  0  0  0  0  0  0  0  0
   -6.7407   12.3094   -6.9043 H   0  0  0  0  0  0  0  0  0  0  0  0
   -4.5143   13.2904   -6.4764 H   0  0  0  0  0  0  0  0  0  0  0  0
   -2.6607    9.7496   -8.0512 H   0  0  0  0  0  0  0  0  0  0  0  0
   -4.8619    8.8217   -7.4897 H   0  0  0  0  0  0  0  0  0  0  0  0
   -4.8560    9.5526   -9.1305 H   0  0  0  0  0  0  0  0  0  0  0  0
   -2.4321   14.1965   -6.1989 H   0  0  0  0  0  0  0  0  0  0  0  0
   -0.6606   10.5688   -7.5878 H   0  0  0  0  0  0  0  0  0  0  0  0
    0.9713   15.0036   -6.8329 H   0  0  0  0  0  0  0  0  0  0  0  0
   -0.2256   15.3572   -5.5409 H   0  0  0  0  0  0  0  0  0  0  0  0
    3.2752   13.4021   -4.8384 H   0  0  0  0  0  0  0  0  0  0  0  0
    1.7145   12.9160   -3.1533 H   0  0  0  0  0  0  0  0  0  0  0  0
    0.0563   13.5598   -3.4030 H   0  0  0  0  0  0  0  0  0  0  0  0
    0.6818   12.2530   -4.4649 H   0  0  0  0  0  0  0  0  0  0  0  0
    2.7591   15.1317   -3.3552 H   0  0  0  0  0  0  0  0  0  0  0  0
    2.4859   16.1517   -4.8082 H   0  0  0  0  0  0  0  0  0  0  0  0
    1.1747   15.9421   -3.5985 H   0  0  0  0  0  0  0  0  0  0  0  0
  1  2  1  0  0  0  0
  1  4  2  0  0  0  0
  1 13  1  0  0  0  0
  2  6  1  0  0  0  0
  3  4  1  0  0  0  0
  3  5  2  0  0  0  0
  5  6  1  0  0  0  0
  5  9  1  0  0  0  0
  6  7  2  0  0  0  0
  7  8  1  0  0  0  0
  7 10  1  0  0  0  0
  8  9  2  0  0  0  0
 10 15  2  3  0  0  0
 11 12  1  0  0  0  0
 11 13  2  0  0  0  0
 13 14  1  0  0  0  0
 15 16  1  0  0  0  0
 15 20  1  0  0  0  0
 16 17  2  0  0  0  0
 17 18  1  0  0  0  0
 18 19  2  0  0  0  0
 18 21  1  0  0  0  0
 19 20  1  0  0  0  0
 21 22  2  0  0  0  0
 21 25  1  0  0  0  0
 22 23  1  0  0  0  0
 23 24  1  0  0  0  0
 23 26  1  0  0  0  0
 24 25  2  0  0  0  0
 26 27  1  0  0  0  0
 27 28  1  0  0  0  0
 27 29  1  0  0  0  0
 27 30  1  0  0  0  0
  2 31  1  0  0  0  0
  2 32  1  0  0  0  0
  3 33  1  0  0  0  0
  4 34  1  0  0  0  0
 10 35  1  0  0  0  0
 12 36  1  0  0  0  0
 12 37  1  0  0  0  0
 12 38  1  0  0  0  0
 14 39  1  0  0  0  0
 16 40  1  0  0  0  0
 17 41  1  0  0  0  0
 19 42  1  0  0  0  0
 20 43  1  0  0  0  0
 20 44  1  0  0  0  0
 22 45  1  0  0  0  0
 25 46  1  0  0  0  0
 26 47  1  0  0  0  0
 26 48  1  0  0  0  0
 28 49  1  0  0  0  0
 29 50  1  0  0  0  0
 29 51  1  0  0  0  0
 29 52  1  0  0  0  0
 30 53  1  0  0  0  0
 30 54  1  0  0  0  0
 30 55  1  0  0  0  0
M  END
> <Name>
20

> <IC50[uM]>
0.016

$$$$
20
  -OEChem-05192314333D
 Structure written by MMmdl.
 55 58  0     0  0  0  0  0  0999 V2000
   -6.3740   12.3524  -12.0161 C   0  0  0  0  0  0  0  0  0  0  0  0
   -6.5100   11.8065  -10.7374 C   0  0  0  0  0  0  0  0  0  0  0  0
   -7.7222   10.5841  -13.0265 C   0  0  0  0  0  0  0  0  0  0  0  0
   -6.9887   11.7756  -13.1353 C   0  0  0  0  0  0  0  0  0  0  0  0
   -7.8163   10.0177  -11.7563 C   0  0  0  0  0  0  0  0  0  0  0  0
   -7.2425   10.6185  -10.6022 C   0  0  0  0  0  0  0  0  0  0  0  0
   -7.6172    9.7487   -9.5090 C   0  0  0  0  0  0  0  0  0  0  0  0
   -8.2846    8.7289   -9.9848 N   0  0  0  0  0  0  0  0  0  0  0  0
   -8.4176    8.8659  -11.2967 N   0  0  0  0  0  0  0  0  0  0  0  0
   -7.3368    9.8884   -8.0257 C   0  0  0  0  0  0  0  0  0  0  0  0
   -4.4023   13.6480  -11.4578 N   0  0  0  0  0  0  0  0  0  0  0  0
   -3.4623   14.7747  -11.4948 C   0  0  0  0  0  0  0  0  0  0  0  0
   -5.5331   13.6158  -12.1961 C   0  0  0  0  0  0  0  0  0  0  0  0
   -5.8776   14.5022  -12.9731 O   0  0  0  0  0  0  0  0  0  0  0  0
   -5.9585   10.4860   -7.7354 C   0  0  0  0  0  0  0  0  0  0  0  0
   -5.8494   11.7555   -7.1596 C   0  0  0  0  0  0  0  0  0  0  0  0
   -4.5968   12.3068   -6.9148 C   0  0  0  0  0  0  0  0  0  0  0  0
   -3.4468   11.5860   -7.2370 C   0  0  0  0  0  0  0  0  0  0  0  0
   -3.5513   10.3089   -7.8057 C   0  0  0  0  0  0  0  0  0  0  0  0
   -4.8090    9.7654   -8.0523 C   0  0  0  0  0  0  0  0  0  0  0  0
   -2.0901   12.1669   -6.9801 C   0  0  0  0  0  0  0  0  0  0  0  0
   -1.7479   13.4121   -6.4872 C   0  0  0  0  0  0  0  0  0  0  0  0
   -0.3990   13.4663   -6.4328 N   0  0  0  0  0  0  0  0  0  0  0  0
    0.1869   12.3691   -6.8386 N   0  0  0  0  0  0  0  0  0  0  0  0
   -0.8034   11.5628   -7.1902 C   0  0  0  0  0  0  0  0  0  0  0  0
    0.4389   14.5894   -5.9640 C   0  0  0  0  0  0  0  0  0  0  0  0
    1.5042   14.2139   -4.8744 C   0  0  0  0  0  0  0  0  0  0  0  0
    2.6302   13.6295   -5.4977 O   0  0  0  0  0  0  0  0  0  0  0  0
    0.9501   13.1612   -3.9053 C   0  0  0  0  0  0  0  0  0  0  0  0
    2.0179   15.4484   -4.1037 C   0  0  0  0  0  0  0  0  0  0  0  0
   -6.0641   12.2854   -9.8782 H   0  0  0  0  0  0  0  0  0  0  0  0
   -8.1913   10.1279  -13.8857 H   0  0  0  0  0  0  0  0  0  0  0  0
   -6.8965   12.2561  -14.0981 H   0  0  0  0  0  0  0  0  0  0  0  0
   -8.6387    7.9660   -9.4439 H   0  0  0  0  0  0  0  0  0  0  0  0
   -8.0357    9.5970   -7.2556 H   0  0  0  0  0  0  0  0  0  0  0  0
   -3.8761   12.8398  -11.7222 H   0  0  0  0  0  0  0  0  0  0  0  0
   -2.6221   14.5745  -10.8136 H   0  0  0  0  0  0  0  0  0  0  0  0
   -3.0817   14.9010  -12.5191 H   0  0  0  0  0  0  0  0  0  0  0  0
   -3.9787   15.6934  -11.1797 H   0  0  0  0  0  0  0  0  0  0  0  0
   -5.2393   15.2056  -12.9549 H   0  0  0  0  0  0  0  0  0  0  0  0
   -6.7407   12.3094   -6.9043 H   0  0  0  0  0  0  0  0  0  0  0  0
   -4.5143   13.2904   -6.4764 H   0  0  0  0  0  0  0  0  0  0  0  0
   -2.6607    9.7496   -8.0512 H   0  0  0  0  0  0  0  0  0  0  0  0
   -4.8939    8.7820   -8.4907 H   0  0  0  0  0  0  0  0  0  0  0  0
   -2.4321   14.1965   -6.1989 H   0  0  0  0  0  0  0  0  0  0  0  0
   -0.6606   10.5688   -7.5878 H   0  0  0  0  0  0  0  0  0  0  0  0
    0.9713   15.0036   -6.8329 H   0  0  0  0  0  0  0  0  0  0  0  0
   -0.2256   15.3572   -5.5409 H   0  0  0  0  0  0  0  0  0  0  0  0
    3.2752   13.4021   -4.8384 H   0  0  0  0  0  0  0  0  0  0  0  0
    1.7145   12.9160   -3.1533 H   0  0  0  0  0  0  0  0  0  0  0  0
    0.0563   13.5598   -3.4030 H   0  0  0  0  0  0  0  0  0  0  0  0
    0.6818   12.2530   -4.4649 H   0  0  0  0  0  0  0  0  0  0  0  0
    2.7591   15.1317   -3.3552 H   0  0  0  0  0  0  0  0  0  0  0  0
    2.4859   16.1517   -4.8082 H   0  0  0  0  0  0  0  0  0  0  0  0
    1.1747   15.9421   -3.5985 H   0  0  0  0  0  0  0  0  0  0  0  0
  1  2  1  0  0  0  0
  1  4  1  0  0  0  0
  1 13  2  3  0  0  0
  2  6  2  0  0  0  0
  3  4  2  0  0  0  0
  3  5  1  0  0  0  0
  5  6  1  0  0  0  0
  5  9  2  0  0  0  0
  6  7  1  0  0  0  0
  7  8  1  0  0  0  0
  7 10  2  3  0  0  0
  8  9  1  0  0  0  0
 10 15  1  0  0  0  0
 11 12  1  0  0  0  0
 11 13  1  0  0  0  0
 13 14  1  0  0  0  0
 15 16  2  0  0  0  0
 15 20  1  0  0  0  0
 16 17  1  0  0  0  0
 17 18  2  0  0  0  0
 18 19  1  0  0  0  0
 18 21  1  0  0  0  0
 19 20  2  0  0  0  0
 21 22  2  0  0  0  0
 21 25  1  0  0  0  0
 22 23  1  0  0  0  0
 23 24  1  0  0  0  0
 23 26  1  0  0  0  0
 24 25  2  0  0  0  0
 26 27  1  0  0  0  0
 27 28  1  0  0  0  0
 27 29  1  0  0  0  0
 27 30  1  0  0  0  0
  2 31  1  0  0  0  0
  3 32  1  0  0  0  0
  4 33  1  0  0  0  0
  8 34  1  0  0  0  0
 10 35  1  0  0  0  0
 11 36  1  0  0  0  0
 12 37  1  0  0  0  0
 12 38  1  0  0  0  0
 12 39  1  0  0  0  0
 14 40  1  0  0  0  0
 16 41  1  0  0  0  0
 17 42  1  0  0  0  0
 19 43  1  0  0  0  0
 20 44  1  0  0  0  0
 22 45  1  0  0  0  0
 25 46  1  0  0  0  0
 26 47  1  0  0  0  0
 26 48  1  0  0  0  0
 28 49  1  0  0  0  0
 29 50  1  0  0  0  0
 29 51  1  0  0  0  0
 29 52  1  0  0  0  0
 30 53  1  0  0  0  0
 30 54  1  0  0  0  0
 30 55  1  0  0  0  0
M  END
> <Name>
20

> <IC50[uM]>
0.016

$$$$
20
  -OEChem-05192314333D
 Structure written by MMmdl.
 55 58  0     1  0  0  0  0  0999 V2000
   -6.3740   12.3524  -12.0161 C   0  0  0  0  0  0  0  0  0  0  0  0
   -6.5100   11.8065  -10.7374 C   0  0  0  0  0  0  0  0  0  0  0  0
   -7.7222   10.5841  -13.0265 C   0  0  0  0  0  0  0  0  0  0  0  0
   -6.9887   11.7756  -13.1353 C   0  0  0  0  0  0  0  0  0  0  0  0
   -7.8163   10.0177  -11.7563 C   0  0  0  0  0  0  0  0  0  0  0  0
   -7.2425   10.6185  -10.6022 C   0  0  0  0  0  0  0  0  0  0  0  0
   -7.6172    9.7487   -9.5090 C   0  0  0  0  0  0  0  0  0  0  0  0
   -8.2846    8.7289   -9.9848 N   0  0  0  0  0  0  0  0  0  0  0  0
   -8.4176    8.8659  -11.2967 N   0  0  0  0  0  0  0  0  0  0  0  0
   -7.3368    9.8884   -8.0257 C   0  0  0  0  0  0  0  0  0  0  0  0
   -4.4023   13.6480  -11.4578 N   0  0  0  0  0  0  0  0  0  0  0  0
   -3.4623   14.7747  -11.4948 C   0  0  0  0  0  0  0  0  0  0  0  0
   -5.5331   13.6158  -12.1961 C   0  0  3  0  0  0  0  0  0  0  0  0
   -5.8776   14.5022  -12.9731 O   0  0  0  0  0  0  0  0  0  0  0  0
   -5.9585   10.4860   -7.7354 C   0  0  0  0  0  0  0  0  0  0  0  0
   -5.8494   11.7555   -7.1596 C   0  0  0  0  0  0  0  0  0  0  0  0
   -4.5968   12.3068   -6.9148 C   0  0  0  0  0  0  0  0  0  0  0  0
   -3.4468   11.5860   -7.2370 C   0  0  0  0  0  0  0  0  0  0  0  0
   -3.5513   10.3089   -7.8057 C   0  0  0  0  0  0  0  0  0  0  0  0
   -4.8090    9.7654   -8.0523 C   0  0  0  0  0  0  0  0  0  0  0  0
   -2.0901   12.1669   -6.9801 C   0  0  0  0  0  0  0  0  0  0  0  0
   -1.7479   13.4121   -6.4872 C   0  0  0  0  0  0  0  0  0  0  0  0
   -0.3990   13.4663   -6.4328 N   0  0  0  0  0  0  0  0  0  0  0  0
    0.1869   12.3691   -6.8386 N   0  0  0  0  0  0  0  0  0  0  0  0
   -0.8034   11.5628   -7.1902 C   0  0  0  0  0  0  0  0  0  0  0  0
    0.4389   14.5894   -5.9640 C   0  0  0  0  0  0  0  0  0  0  0  0
    1.5042   14.2139   -4.8744 C   0  0  0  0  0  0  0  0  0  0  0  0
    2.6302   13.6295   -5.4977 O   0  0  0  0  0  0  0  0  0  0  0  0
    0.9501   13.1612   -3.9053 C   0  0  0  0  0  0  0  0  0  0  0  0
    2.0179   15.4484   -4.1037 C   0  0  0  0  0  0  0  0  0  0  0  0
   -6.0641   12.2854   -9.8782 H   0  0  0  0  0  0  0  0  0  0  0  0
   -8.1913   10.1279  -13.8857 H   0  0  0  0  0  0  0  0  0  0  0  0
   -6.8965   12.2561  -14.0981 H   0  0  0  0  0  0  0  0  0  0  0  0
   -8.0357    9.5970   -7.2556 H   0  0  0  0  0  0  0  0  0  0  0  0
   -3.8761   12.8398  -11.7222 H   0  0  0  0  0  0  0  0  0  0  0  0
   -2.6221   14.5745  -10.8136 H   0  0  0  0  0  0  0  0  0  0  0  0
   -3.0817   14.9010  -12.5191 H   0  0  0  0  0  0  0  0  0  0  0  0
   -3.9787   15.6934  -11.1797 H   0  0  0  0  0  0  0  0  0  0  0  0
   -6.0860   14.1062  -11.3813 H   0  0  0  0  0  0  0  0  0  0  0  0
   -5.2393   15.2056  -12.9549 H   0  0  0  0  0  0  0  0  0  0  0  0
   -6.7407   12.3094   -6.9043 H   0  0  0  0  0  0  0  0  0  0  0  0
   -4.5143   13.2904   -6.4764 H   0  0  0  0  0  0  0  0  0  0  0  0
   -2.6607    9.7496   -8.0512 H   0  0  0  0  0  0  0  0  0  0  0  0
   -4.8939    8.7820   -8.4907 H   0  0  0  0  0  0  0  0  0  0  0  0
   -2.4321   14.1965   -6.1989 H   0  0  0  0  0  0  0  0  0  0  0  0
   -0.6606   10.5688   -7.5878 H   0  0  0  0  0  0  0  0  0  0  0  0
    0.9713   15.0036   -6.8329 H   0  0  0  0  0  0  0  0  0  0  0  0
   -0.2256   15.3572   -5.5409 H   0  0  0  0  0  0  0  0  0  0  0  0
    3.2752   13.4021   -4.8384 H   0  0  0  0  0  0  0  0  0  0  0  0
    1.7145   12.9160   -3.1533 H   0  0  0  0  0  0  0  0  0  0  0  0
    0.0563   13.5598   -3.4030 H   0  0  0  0  0  0  0  0  0  0  0  0
    0.6818   12.2530   -4.4649 H   0  0  0  0  0  0  0  0  0  0  0  0
    2.7591   15.1317   -3.3552 H   0  0  0  0  0  0  0  0  0  0  0  0
    2.4859   16.1517   -4.8082 H   0  0  0  0  0  0  0  0  0  0  0  0
    1.1747   15.9421   -3.5985 H   0  0  0  0  0  0  0  0  0  0  0  0
  1  2  2  0  0  0  0
  1  4  1  0  0  0  0
  1 13  1  0  0  0  0
  2  6  1  0  0  0  0
  3  4  2  0  0  0  0
  3  5  1  0  0  0  0
  5  6  2  0  0  0  0
  5  9  1  0  0  0  0
  6  7  1  0  0  0  0
  7  8  1  0  0  0  0
  7 10  2  3  0  0  0
  8  9  2  0  0  0  0
 10 15  1  0  0  0  0
 11 12  1  0  0  0  0
 11 13  1  0  0  0  0
 13 14  1  0  0  0  0
 15 16  2  0  0  0  0
 15 20  1  0  0  0  0
 16 17  1  0  0  0  0
 17 18  2  0  0  0  0
 18 19  1  0  0  0  0
 18 21  1  0  0  0  0
 19 20  2  0  0  0  0
 21 22  2  0  0  0  0
 21 25  1  0  0  0  0
 22 23  1  0  0  0  0
 23 24  1  0  0  0  0
 23 26  1  0  0  0  0
 24 25  2  0  0  0  0
 26 27  1  0  0  0  0
 27 28  1  0  0  0  0
 27 29  1  0  0  0  0
 27 30  1  0  0  0  0
  2 31  1  0  0  0  0
  3 32  1  0  0  0  0
  4 33  1  0  0  0  0
 10 34  1  0  0  0  0
 11 35  1  0  0  0  0
 12 36  1  0  0  0  0
 12 37  1  0  0  0  0
 12 38  1  0  0  0  0
 13 39  1  0  0  0  0
 14 40  1  0  0  0  0
 16 41  1  0  0  0  0
 17 42  1  0  0  0  0
 19 43  1  0  0  0  0
 20 44  1  0  0  0  0
 22 45  1  0  0  0  0
 25 46  1  0  0  0  0
 26 47  1  0  0  0  0
 26 48  1  0  0  0  0
 28 49  1  0  0  0  0
 29 50  1  0  0  0  0
 29 51  1  0  0  0  0
 29 52  1  0  0  0  0
 30 53  1  0  0  0  0
 30 54  1  0  0  0  0
 30 55  1  0  0  0  0
M  END
> <Name>
20

> <IC50[uM]>
0.016

$$$$
20
  -OEChem-05192314333D
 Structure written by MMmdl.
 55 58  0     0  0  0  0  0  0999 V2000
   -6.3740   12.3524  -12.0161 C   0  0  0  0  0  0  0  0  0  0  0  0
   -6.5100   11.8065  -10.7374 C   0  0  0  0  0  0  0  0  0  0  0  0
   -7.7222   10.5841  -13.0265 C   0  0  0  0  0  0  0  0  0  0  0  0
   -6.9887   11.7756  -13.1353 C   0  0  0  0  0  0  0  0  0  0  0  0
   -7.8163   10.0177  -11.7563 C   0  0  0  0  0  0  0  0  0  0  0  0
   -7.2425   10.6185  -10.6022 C   0  0  0  0  0  0  0  0  0  0  0  0
   -7.6172    9.7487   -9.5090 C   0  0  0  0  0  0  0  0  0  0  0  0
   -8.2846    8.7289   -9.9848 N   0  0  0  0  0  0  0  0  0  0  0  0
   -8.4176    8.8659  -11.2967 N   0  0  0  0  0  0  0  0  0  0  0  0
   -7.3368    9.8884   -8.0257 C   0  0  0  0  0  0  0  0  0  0  0  0
   -4.4023   13.6480  -11.4578 N   0  0  0  0  0  0  0  0  0  0  0  0
   -3.4623   14.7747  -11.4948 C   0  0  0  0  0  0  0  0  0  0  0  0
   -5.5331   13.6158  -12.1961 C   0  0  0  0  0  0  0  0  0  0  0  0
   -5.8776   14.5022  -12.9731 O   0  0  0  0  0  0  0  0  0  0  0  0
   -5.9585   10.4860   -7.7354 C   0  0  0  0  0  0  0  0  0  0  0  0
   -5.8494   11.7555   -7.1596 C   0  0  0  0  0  0  0  0  0  0  0  0
   -4.5968   12.3068   -6.9148 C   0  0  0  0  0  0  0  0  0  0  0  0
   -3.4468   11.5860   -7.2370 C   0  0  0  0  0  0  0  0  0  0  0  0
   -3.5513   10.3089   -7.8057 C   0  0  0  0  0  0  0  0  0  0  0  0
   -4.8090    9.7654   -8.0523 C   0  0  0  0  0  0  0  0  0  0  0  0
   -2.0901   12.1669   -6.9801 C   0  0  0  0  0  0  0  0  0  0  0  0
   -1.7479   13.4121   -6.4872 C   0  0  0  0  0  0  0  0  0  0  0  0
   -0.3990   13.4663   -6.4328 N   0  0  0  0  0  0  0  0  0  0  0  0
    0.1869   12.3691   -6.8386 N   0  0  0  0  0  0  0  0  0  0  0  0
   -0.8034   11.5628   -7.1902 C   0  0  0  0  0  0  0  0  0  0  0  0
    0.4389   14.5894   -5.9640 C   0  0  0  0  0  0  0  0  0  0  0  0
    1.5042   14.2139   -4.8744 C   0  0  0  0  0  0  0  0  0  0  0  0
    2.6302   13.6295   -5.4977 O   0  0  0  0  0  0  0  0  0  0  0  0
    0.9501   13.1612   -3.9053 C   0  0  0  0  0  0  0  0  0  0  0  0
    2.0179   15.4484   -4.1037 C   0  0  0  0  0  0  0  0  0  0  0  0
   -6.0641   12.2854   -9.8782 H   0  0  0  0  0  0  0  0  0  0  0  0
   -8.1913   10.1279  -13.8857 H   0  0  0  0  0  0  0  0  0  0  0  0
   -6.8965   12.2561  -14.0981 H   0  0  0  0  0  0  0  0  0  0  0  0
   -8.1032   10.5418   -7.5834 H   0  0  0  0  0  0  0  0  0  0  0  0
   -7.3924    8.8923   -7.5624 H   0  0  0  0  0  0  0  0  0  0  0  0
   -3.8761   12.8398  -11.7222 H   0  0  0  0  0  0  0  0  0  0  0  0
   -2.6221   14.5745  -10.8136 H   0  0  0  0  0  0  0  0  0  0  0  0
   -3.0817   14.9010  -12.5191 H   0  0  0  0  0  0  0  0  0  0  0  0
   -3.9787   15.6934  -11.1797 H   0  0  0  0  0  0  0  0  0  0  0  0
   -5.2393   15.2056  -12.9549 H   0  0  0  0  0  0  0  0  0  0  0  0
   -6.7407   12.3094   -6.9043 H   0  0  0  0  0  0  0  0  0  0  0  0
   -4.5143   13.2904   -6.4764 H   0  0  0  0  0  0  0  0  0  0  0  0
   -2.6607    9.7496   -8.0512 H   0  0  0  0  0  0  0  0  0  0  0  0
   -4.8939    8.7820   -8.4907 H   0  0  0  0  0  0  0  0  0  0  0  0
   -2.4321   14.1965   -6.1989 H   0  0  0  0  0  0  0  0  0  0  0  0
   -0.6606   10.5688   -7.5878 H   0  0  0  0  0  0  0  0  0  0  0  0
    0.9713   15.0036   -6.8329 H   0  0  0  0  0  0  0  0  0  0  0  0
   -0.2256   15.3572   -5.5409 H   0  0  0  0  0  0  0  0  0  0  0  0
    3.2752   13.4021   -4.8384 H   0  0  0  0  0  0  0  0  0  0  0  0
    1.7145   12.9160   -3.1533 H   0  0  0  0  0  0  0  0  0  0  0  0
    0.0563   13.5598   -3.4030 H   0  0  0  0  0  0  0  0  0  0  0  0
    0.6818   12.2530   -4.4649 H   0  0  0  0  0  0  0  0  0  0  0  0
    2.7591   15.1317   -3.3552 H   0  0  0  0  0  0  0  0  0  0  0  0
    2.4859   16.1517   -4.8082 H   0  0  0  0  0  0  0  0  0  0  0  0
    1.1747   15.9421   -3.5985 H   0  0  0  0  0  0  0  0  0  0  0  0
  1  2  1  0  0  0  0
  1  4  1  0  0  0  0
  1 13  2  3  0  0  0
  2  6  2  0  0  0  0
  3  4  2  0  0  0  0
  3  5  1  0  0  0  0
  5  6  1  0  0  0  0
  5  9  2  0  0  0  0
  6  7  1  0  0  0  0
  7  8  2  0  0  0  0
  7 10  1  0  0  0  0
  8  9  1  0  0  0  0
 10 15  1  0  0  0  0
 11 12  1  0  0  0  0
 11 13  1  0  0  0  0
 13 14  1  0  0  0  0
 15 16  2  0  0  0  0
 15 20  1  0  0  0  0
 16 17  1  0  0  0  0
 17 18  2  0  0  0  0
 18 19  1  0  0  0  0
 18 21  1  0  0  0  0
 19 20  2  0  0  0  0
 21 22  2  0  0  0  0
 21 25  1  0  0  0  0
 22 23  1  0  0  0  0
 23 24  1  0  0  0  0
 23 26  1  0  0  0  0
 24 25  2  0  0  0  0
 26 27  1  0  0  0  0
 27 28  1  0  0  0  0
 27 29  1  0  0  0  0
 27 30  1  0  0  0  0
  2 31  1  0  0  0  0
  3 32  1  0  0  0  0
  4 33  1  0  0  0  0
 10 34  1  0  0  0  0
 10 35  1  0  0  0  0
 11 36  1  0  0  0  0
 12 37  1  0  0  0  0
 12 38  1  0  0  0  0
 12 39  1  0  0  0  0
 14 40  1  0  0  0  0
 16 41  1  0  0  0  0
 17 42  1  0  0  0  0
 19 43  1  0  0  0  0
 20 44  1  0  0  0  0
 22 45  1  0  0  0  0
 25 46  1  0  0  0  0
 26 47  1  0  0  0  0
 26 48  1  0  0  0  0
 28 49  1  0  0  0  0
 29 50  1  0  0  0  0
 29 51  1  0  0  0  0
 29 52  1  0  0  0  0
 30 53  1  0  0  0  0
 30 54  1  0  0  0  0
 30 55  1  0  0  0  0
M  END
> <Name>
20

> <IC50[uM]>
0.016

$$$$
20
  -OEChem-05192314333D
 Structure written by MMmdl.
 55 58  0     1  0  0  0  0  0999 V2000
   -6.3740   12.3524  -12.0161 C   0  0  0  0  0  0  0  0  0  0  0  0
   -6.5100   11.8065  -10.7374 C   0  0  0  0  0  0  0  0  0  0  0  0
   -7.7222   10.5841  -13.0265 C   0  0  0  0  0  0  0  0  0  0  0  0
   -6.9887   11.7756  -13.1353 C   0  0  0  0  0  0  0  0  0  0  0  0
   -7.8163   10.0177  -11.7563 C   0  0  0  0  0  0  0  0  0  0  0  0
   -7.2425   10.6185  -10.6022 C   0  0  0  0  0  0  0  0  0  0  0  0
   -7.6172    9.7487   -9.5090 C   0  0  0  0  0  0  0  0  0  0  0  0
   -8.2846    8.7289   -9.9848 N   0  0  0  0  0  0  0  0  0  0  0  0
   -8.4176    8.8659  -11.2967 N   0  0  0  0  0  0  0  0  0  0  0  0
   -7.3368    9.8884   -8.0257 C   0  0  0  0  0  0  0  0  0  0  0  0
   -4.4023   13.6480  -11.4578 N   0  0  0  0  0  0  0  0  0  0  0  0
   -3.4623   14.7747  -11.4948 C   0  0  0  0  0  0  0  0  0  0  0  0
   -5.5331   13.6158  -12.1961 C   0  0  0  0  0  0  0  0  0  0  0  0
   -5.8776   14.5022  -12.9731 O   0  0  0  0  0  0  0  0  0  0  0  0
   -5.9585   10.4860   -7.7354 C   0  0  0  0  0  0  0  0  0  0  0  0
   -5.8494   11.7555   -7.1596 C   0  0  0  0  0  0  0  0  0  0  0  0
   -4.5968   12.3068   -6.9148 C   0  0  0  0  0  0  0  0  0  0  0  0
   -3.4468   11.5860   -7.2370 C   0  0  0  0  0  0  0  0  0  0  0  0
   -3.5513   10.3089   -7.8057 C   0  0  0  0  0  0  0  0  0  0  0  0
   -4.8090    9.7654   -8.0523 C   0  0  0  0  0  0  0  0  0  0  0  0
   -2.0901   12.1669   -6.9801 C   0  0  0  0  0  0  0  0  0  0  0  0
   -1.7479   13.4121   -6.4872 C   0  0  0  0  0  0  0  0  0  0  0  0
   -0.3990   13.4663   -6.4328 N   0  0  3  0  0  0  0  0  0  0  0  0
    0.1869   12.3691   -6.8386 N   0  0  0  0  0  0  0  0  0  0  0  0
   -0.8034   11.5628   -7.1902 C   0  0  0  0  0  0  0  0  0  0  0  0
    0.4389   14.5894   -5.9640 C   0  0  0  0  0  0  0  0  0  0  0  0
    1.5042   14.2139   -4.8744 C   0  0  0  0  0  0  0  0  0  0  0  0
    2.6302   13.6295   -5.4977 O   0  0  0  0  0  0  0  0  0  0  0  0
    0.9501   13.1612   -3.9053 C   0  0  0  0  0  0  0  0  0  0  0  0
    2.0179   15.4484   -4.1037 C   0  0  0  0  0  0  0  0  0  0  0  0
   -6.0641   12.2854   -9.8782 H   0  0  0  0  0  0  0  0  0  0  0  0
   -8.1913   10.1279  -13.8857 H   0  0  0  0  0  0  0  0  0  0  0  0
   -6.8965   12.2561  -14.0981 H   0  0  0  0  0  0  0  0  0  0  0  0
   -8.0357    9.5970   -7.2556 H   0  0  0  0  0  0  0  0  0  0  0  0
   -3.8761   12.8398  -11.7222 H   0  0  0  0  0  0  0  0  0  0  0  0
   -2.6221   14.5745  -10.8136 H   0  0  0  0  0  0  0  0  0  0  0  0
   -3.0817   14.9010  -12.5191 H   0  0  0  0  0  0  0  0  0  0  0  0
   -3.9787   15.6934  -11.1797 H   0  0  0  0  0  0  0  0  0  0  0  0
   -5.2393   15.2056  -12.9549 H   0  0  0  0  0  0  0  0  0  0  0  0
   -6.7407   12.3094   -6.9043 H   0  0  0  0  0  0  0  0  0  0  0  0
   -4.5143   13.2904   -6.4764 H   0  0  0  0  0  0  0  0  0  0  0  0
   -2.6607    9.7496   -8.0512 H   0  0  0  0  0  0  0  0  0  0  0  0
   -4.8939    8.7820   -8.4907 H   0  0  0  0  0  0  0  0  0  0  0  0
   -2.1296   14.1989   -7.1545 H   0  0  0  0  0  0  0  0  0  0  0  0
   -2.1709   13.5478   -5.4809 H   0  0  0  0  0  0  0  0  0  0  0  0
   -0.6606   10.5688   -7.5878 H   0  0  0  0  0  0  0  0  0  0  0  0
    0.9713   15.0036   -6.8329 H   0  0  0  0  0  0  0  0  0  0  0  0
   -0.2256   15.3572   -5.5409 H   0  0  0  0  0  0  0  0  0  0  0  0
    3.2752   13.4021   -4.8384 H   0  0  0  0  0  0  0  0  0  0  0  0
    1.7145   12.9160   -3.1533 H   0  0  0  0  0  0  0  0  0  0  0  0
    0.0563   13.5598   -3.4030 H   0  0  0  0  0  0  0  0  0  0  0  0
    0.6818   12.2530   -4.4649 H   0  0  0  0  0  0  0  0  0  0  0  0
    2.7591   15.1317   -3.3552 H   0  0  0  0  0  0  0  0  0  0  0  0
    2.4859   16.1517   -4.8082 H   0  0  0  0  0  0  0  0  0  0  0  0
    1.1747   15.9421   -3.5985 H   0  0  0  0  0  0  0  0  0  0  0  0
  1  2  1  0  0  0  0
  1  4  1  0  0  0  0
  1 13  2  3  0  0  0
  2  6  2  0  0  0  0
  3  4  2  0  0  0  0
  3  5  1  0  0  0  0
  5  6  1  0  0  0  0
  5  9  2  0  0  0  0
  6  7  1  0  0  0  0
  7  8  2  0  0  0  0
  7 10  1  0  0  0  0
  8  9  1  0  0  0  0
 10 15  2  0  0  0  0
 11 12  1  0  0  0  0
 11 13  1  0  0  0  0
 13 14  1  0  0  0  0
 15 16  1  0  0  0  0
 15 20  1  0  0  0  0
 16 17  2  0  0  0  0
 17 18  1  0  0  0  0
 18 19  1  0  0  0  0
 18 21  2  0  0  0  0
 19 20  2  0  0  0  0
 21 22  1  0  0  0  0
 21 25  1  0  0  0  0
 22 23  1  0  0  0  0
 23 24  1  0  0  0  0
 23 26  1  0  0  0  0
 24 25  2  0  0  0  0
 26 27  1  0  0  0  0
 27 28  1  0  0  0  0
 27 29  1  0  0  0  0
 27 30  1  0  0  0  0
  2 31  1  0  0  0  0
  3 32  1  0  0  0  0
  4 33  1  0  0  0  0
 10 34  1  0  0  0  0
 11 35  1  0  0  0  0
 12 36  1  0  0  0  0
 12 37  1  0  0  0  0
 12 38  1  0  0  0  0
 14 39  1  0  0  0  0
 16 40  1  0  0  0  0
 17 41  1  0  0  0  0
 19 42  1  0  0  0  0
 20 43  1  0  0  0  0
 22 44  1  0  0  0  0
 22 45  1  0  0  0  0
 25 46  1  0  0  0  0
 26 47  1  0  0  0  0
 26 48  1  0  0  0  0
 28 49  1  0  0  0  0
 29 50  1  0  0  0  0
 29 51  1  0  0  0  0
 29 52  1  0  0  0  0
 30 53  1  0  0  0  0
 30 54  1  0  0  0  0
 30 55  1  0  0  0  0
M  END
> <Name>
20

> <IC50[uM]>
0.016

$$$$
20
  -OEChem-05192314333D
 Structure written by MMmdl.
 55 58  0     1  0  0  0  0  0999 V2000
   -6.3740   12.3524  -12.0161 C   0  0  0  0  0  0  0  0  0  0  0  0
   -6.5100   11.8065  -10.7374 C   0  0  0  0  0  0  0  0  0  0  0  0
   -7.7222   10.5841  -13.0265 C   0  0  0  0  0  0  0  0  0  0  0  0
   -6.9887   11.7756  -13.1353 C   0  0  0  0  0  0  0  0  0  0  0  0
   -7.8163   10.0177  -11.7563 C   0  0  3  0  0  0  0  0  0  0  0  0
   -7.2425   10.6185  -10.6022 C   0  0  0  0  0  0  0  0  0  0  0  0
   -7.6172    9.7487   -9.5090 C   0  0  0  0  0  0  0  0  0  0  0  0
   -8.2846    8.7289   -9.9848 N   0  0  0  0  0  0  0  0  0  0  0  0
   -8.4176    8.8659  -11.2967 N   0  0  0  0  0  0  0  0  0  0  0  0
   -7.3368    9.8884   -8.0257 C   0  0  0  0  0  0  0  0  0  0  0  0
   -4.4023   13.6480  -11.4578 N   0  0  0  0  0  0  0  0  0  0  0  0
   -3.4623   14.7747  -11.4948 C   0  0  0  0  0  0  0  0  0  0  0  0
   -5.5331   13.6158  -12.1961 C   0  0  0  0  0  0  0  0  0  0  0  0
   -5.8776   14.5022  -12.9731 O   0  0  0  0  0  0  0  0  0  0  0  0
   -5.9585   10.4860   -7.7354 C   0  0  0  0  0  0  0  0  0  0  0  0
   -5.8494   11.7555   -7.1596 C   0  0  0  0  0  0  0  0  0  0  0  0
   -4.5968   12.3068   -6.9148 C   0  0  0  0  0  0  0  0  0  0  0  0
   -3.4468   11.5860   -7.2370 C   0  0  0  0  0  0  0  0  0  0  0  0
   -3.5513   10.3089   -7.8057 C   0  0  0  0  0  0  0  0  0  0  0  0
   -4.8090    9.7654   -8.0523 C   0  0  0  0  0  0  0  0  0  0  0  0
   -2.0901   12.1669   -6.9801 C   0  0  0  0  0  0  0  0  0  0  0  0
   -1.7479   13.4121   -6.4872 C   0  0  0  0  0  0  0  0  0  0  0  0
   -0.3990   13.4663   -6.4328 N   0  0  0  0  0  0  0  0  0  0  0  0
    0.1869   12.3691   -6.8386 N   0  0  0  0  0  0  0  0  0  0  0  0
   -0.8034   11.5628   -7.1902 C   0  0  0  0  0  0  0  0  0  0  0  0
    0.4389   14.5894   -5.9640 C   0  0  0  0  0  0  0  0  0  0  0  0
    1.5042   14.2139   -4.8744 C   0  0  0  0  0  0  0  0  0  0  0  0
    2.6302   13.6295   -5.4977 O   0  0  0  0  0  0  0  0  0  0  0  0
    0.9501   13.1612   -3.9053 C   0  0  0  0  0  0  0  0  0  0  0  0
    2.0179   15.4484   -4.1037 C   0  0  0  0  0  0  0  0  0  0  0  0
   -6.0641   12.2854   -9.8782 H   0  0  0  0  0  0  0  0  0  0  0  0
   -8.1913   10.1279  -13.8857 H   0  0  0  0  0  0  0  0  0  0  0  0
   -6.8965   12.2561  -14.0981 H   0  0  0  0  0  0  0  0  0  0  0  0
   -6.8834    9.4622  -11.9330 H   0  0  0  0  0  0  0  0  0  0  0  0
   -8.0357    9.5970   -7.2556 H   0  0  0  0  0  0  0  0  0  0  0  0
   -3.8761   12.8398  -11.7222 H   0  0  0  0  0  0  0  0  0  0  0  0
   -2.6221   14.5745  -10.8136 H   0  0  0  0  0  0  0  0  0  0  0  0
   -3.0817   14.9010  -12.5191 H   0  0  0  0  0  0  0  0  0  0  0  0
   -3.9787   15.6934  -11.1797 H   0  0  0  0  0  0  0  0  0  0  0  0
   -5.2393   15.2056  -12.9549 H   0  0  0  0  0  0  0  0  0  0  0  0
   -6.7407   12.3094   -6.9043 H   0  0  0  0  0  0  0  0  0  0  0  0
   -4.5143   13.2904   -6.4764 H   0  0  0  0  0  0  0  0  0  0  0  0
   -2.6607    9.7496   -8.0512 H   0  0  0  0  0  0  0  0  0  0  0  0
   -4.8939    8.7820   -8.4907 H   0  0  0  0  0  0  0  0  0  0  0  0
   -2.4321   14.1965   -6.1989 H   0  0  0  0  0  0  0  0  0  0  0  0
   -0.6606   10.5688   -7.5878 H   0  0  0  0  0  0  0  0  0  0  0  0
    0.9713   15.0036   -6.8329 H   0  0  0  0  0  0  0  0  0  0  0  0
   -0.2256   15.3572   -5.5409 H   0  0  0  0  0  0  0  0  0  0  0  0
    3.2752   13.4021   -4.8384 H   0  0  0  0  0  0  0  0  0  0  0  0
    1.7145   12.9160   -3.1533 H   0  0  0  0  0  0  0  0  0  0  0  0
    0.0563   13.5598   -3.4030 H   0  0  0  0  0  0  0  0  0  0  0  0
    0.6818   12.2530   -4.4649 H   0  0  0  0  0  0  0  0  0  0  0  0
    2.7591   15.1317   -3.3552 H   0  0  0  0  0  0  0  0  0  0  0  0
    2.4859   16.1517   -4.8082 H   0  0  0  0  0  0  0  0  0  0  0  0
    1.1747   15.9421   -3.5985 H   0  0  0  0  0  0  0  0  0  0  0  0
  1  2  1  0  0  0  0
  1  4  1  0  0  0  0
  1 13  2  3  0  0  0
  2  6  2  0  0  0  0
  3  4  2  0  0  0  0
  3  5  1  0  0  0  0
  5  6  1  0  0  0  0
  5  9  1  0  0  0  0
  6  7  1  0  0  0  0
  7  8  1  0  0  0  0
  7 10  2  3  0  0  0
  8  9  2  0  0  0  0
 10 15  1  0  0  0  0
 11 12  1  0  0  0  0
 11 13  1  0  0  0  0
 13 14  1  0  0  0  0
 15 16  2  0  0  0  0
 15 20  1  0  0  0  0
 16 17  1  0  0  0  0
 17 18  2  0  0  0  0
 18 19  1  0  0  0  0
 18 21  1  0  0  0  0
 19 20  2  0  0  0  0
 21 22  2  0  0  0  0
 21 25  1  0  0  0  0
 22 23  1  0  0  0  0
 23 24  1  0  0  0  0
 23 26  1  0  0  0  0
 24 25  2  0  0  0  0
 26 27  1  0  0  0  0
 27 28  1  0  0  0  0
 27 29  1  0  0  0  0
 27 30  1  0  0  0  0
  2 31  1  0  0  0  0
  3 32  1  0  0  0  0
  4 33  1  0  0  0  0
  5 34  1  0  0  0  0
 10 35  1  0  0  0  0
 11 36  1  0  0  0  0
 12 37  1  0  0  0  0
 12 38  1  0  0  0  0
 12 39  1  0  0  0  0
 14 40  1  0  0  0  0
 16 41  1  0  0  0  0
 17 42  1  0  0  0  0
 19 43  1  0  0  0  0
 20 44  1  0  0  0  0
 22 45  1  0  0  0  0
 25 46  1  0  0  0  0
 26 47  1  0  0  0  0
 26 48  1  0  0  0  0
 28 49  1  0  0  0  0
 29 50  1  0  0  0  0
 29 51  1  0  0  0  0
 29 52  1  0  0  0  0
 30 53  1  0  0  0  0
 30 54  1  0  0  0  0
 30 55  1  0  0  0  0
M  END
> <Name>
20

> <IC50[uM]>
0.016

$$$$
20
  -OEChem-05192314333D
 Structure written by MMmdl.
 55 58  0     0  0  0  0  0  0999 V2000
   -6.3740   12.3524  -12.0161 C   0  0  0  0  0  0  0  0  0  0  0  0
   -6.5100   11.8065  -10.7374 C   0  0  0  0  0  0  0  0  0  0  0  0
   -7.7222   10.5841  -13.0265 C   0  0  0  0  0  0  0  0  0  0  0  0
   -6.9887   11.7756  -13.1353 C   0  0  0  0  0  0  0  0  0  0  0  0
   -7.8163   10.0177  -11.7563 C   0  0  0  0  0  0  0  0  0  0  0  0
   -7.2425   10.6185  -10.6022 C   0  0  0  0  0  0  0  0  0  0  0  0
   -7.6172    9.7487   -9.5090 C   0  0  0  0  0  0  0  0  0  0  0  0
   -8.2846    8.7289   -9.9848 N   0  0  0  0  0  0  0  0  0  0  0  0
   -8.4176    8.8659  -11.2967 N   0  0  0  0  0  0  0  0  0  0  0  0
   -7.3368    9.8884   -8.0257 C   0  0  0  0  0  0  0  0  0  0  0  0
   -4.4023   13.6480  -11.4578 N   0  0  0  0  0  0  0  0  0  0  0  0
   -3.4623   14.7747  -11.4948 C   0  0  0  0  0  0  0  0  0  0  0  0
   -5.5331   13.6158  -12.1961 C   0  0  0  0  0  0  0  0  0  0  0  0
   -5.8776   14.5022  -12.9731 O   0  0  0  0  0  0  0  0  0  0  0  0
   -5.9585   10.4860   -7.7354 C   0  0  0  0  0  0  0  0  0  0  0  0
   -5.8494   11.7555   -7.1596 C   0  0  0  0  0  0  0  0  0  0  0  0
   -4.5968   12.3068   -6.9148 C   0  0  0  0  0  0  0  0  0  0  0  0
   -3.4468   11.5860   -7.2370 C   0  0  0  0  0  0  0  0  0  0  0  0
   -3.5513   10.3089   -7.8057 C   0  0  0  0  0  0  0  0  0  0  0  0
   -4.8090    9.7654   -8.0523 C   0  0  0  0  0  0  0  0  0  0  0  0
   -2.0901   12.1669   -6.9801 C   0  0  0  0  0  0  0  0  0  0  0  0
   -1.7479   13.4121   -6.4872 C   0  0  0  0  0  0  0  0  0  0  0  0
   -0.3990   13.4663   -6.4328 N   0  0  0  0  0  0  0  0  0  0  0  0
    0.1869   12.3691   -6.8386 N   0  0  0  0  0  0  0  0  0  0  0  0
   -0.8034   11.5628   -7.1902 C   0  0  0  0  0  0  0  0  0  0  0  0
    0.4389   14.5894   -5.9640 C   0  0  0  0  0  0  0  0  0  0  0  0
    1.5042   14.2139   -4.8744 C   0  0  0  0  0  0  0  0  0  0  0  0
    2.6302   13.6295   -5.4977 O   0  0  0  0  0  0  0  0  0  0  0  0
    0.9501   13.1612   -3.9053 C   0  0  0  0  0  0  0  0  0  0  0  0
    2.0179   15.4484   -4.1037 C   0  0  0  0  0  0  0  0  0  0  0  0
   -6.0641   12.2854   -9.8782 H   0  0  0  0  0  0  0  0  0  0  0  0
   -8.1913   10.1279  -13.8857 H   0  0  0  0  0  0  0  0  0  0  0  0
   -7.6795   12.5319  -13.5364 H   0  0  0  0  0  0  0  0  0  0  0  0
   -6.1895   11.5845  -13.8665 H   0  0  0  0  0  0  0  0  0  0  0  0
   -8.0357    9.5970   -7.2556 H   0  0  0  0  0  0  0  0  0  0  0  0
   -3.8761   12.8398  -11.7222 H   0  0  0  0  0  0  0  0  0  0  0  0
   -2.6221   14.5745  -10.8136 H   0  0  0  0  0  0  0  0  0  0  0  0
   -3.0817   14.9010  -12.5191 H   0  0  0  0  0  0  0  0  0  0  0  0
   -3.9787   15.6934  -11.1797 H   0  0  0  0  0  0  0  0  0  0  0  0
   -5.2393   15.2056  -12.9549 H   0  0  0  0  0  0  0  0  0  0  0  0
   -6.7407   12.3094   -6.9043 H   0  0  0  0  0  0  0  0  0  0  0  0
   -4.5143   13.2904   -6.4764 H   0  0  0  0  0  0  0  0  0  0  0  0
   -2.6607    9.7496   -8.0512 H   0  0  0  0  0  0  0  0  0  0  0  0
   -4.8939    8.7820   -8.4907 H   0  0  0  0  0  0  0  0  0  0  0  0
   -2.4321   14.1965   -6.1989 H   0  0  0  0  0  0  0  0  0  0  0  0
   -0.6606   10.5688   -7.5878 H   0  0  0  0  0  0  0  0  0  0  0  0
    0.9713   15.0036   -6.8329 H   0  0  0  0  0  0  0  0  0  0  0  0
   -0.2256   15.3572   -5.5409 H   0  0  0  0  0  0  0  0  0  0  0  0
    3.2752   13.4021   -4.8384 H   0  0  0  0  0  0  0  0  0  0  0  0
    1.7145   12.9160   -3.1533 H   0  0  0  0  0  0  0  0  0  0  0  0
    0.0563   13.5598   -3.4030 H   0  0  0  0  0  0  0  0  0  0  0  0
    0.6818   12.2530   -4.4649 H   0  0  0  0  0  0  0  0  0  0  0  0
    2.7591   15.1317   -3.3552 H   0  0  0  0  0  0  0  0  0  0  0  0
    2.4859   16.1517   -4.8082 H   0  0  0  0  0  0  0  0  0  0  0  0
    1.1747   15.9421   -3.5985 H   0  0  0  0  0  0  0  0  0  0  0  0
  1  2  1  0  0  0  0
  1  4  1  0  0  0  0
  1 13  2  3  0  0  0
  2  6  2  0  0  0  0
  3  4  1  0  0  0  0
  3  5  2  0  0  0  0
  5  6  1  0  0  0  0
  5  9  1  0  0  0  0
  6  7  1  0  0  0  0
  7  8  1  0  0  0  0
  7 10  2  3  0  0  0
  8  9  2  0  0  0  0
 10 15  1  0  0  0  0
 11 12  1  0  0  0  0
 11 13  1  0  0  0  0
 13 14  1  0  0  0  0
 15 16  2  0  0  0  0
 15 20  1  0  0  0  0
 16 17  1  0  0  0  0
 17 18  2  0  0  0  0
 18 19  1  0  0  0  0
 18 21  1  0  0  0  0
 19 20  2  0  0  0  0
 21 22  2  0  0  0  0
 21 25  1  0  0  0  0
 22 23  1  0  0  0  0
 23 24  1  0  0  0  0
 23 26  1  0  0  0  0
 24 25  2  0  0  0  0
 26 27  1  0  0  0  0
 27 28  1  0  0  0  0
 27 29  1  0  0  0  0
 27 30  1  0  0  0  0
  2 31  1  0  0  0  0
  3 32  1  0  0  0  0
  4 33  1  0  0  0  0
  4 34  1  0  0  0  0
 10 35  1  0  0  0  0
 11 36  1  0  0  0  0
 12 37  1  0  0  0  0
 12 38  1  0  0  0  0
 12 39  1  0  0  0  0
 14 40  1  0  0  0  0
 16 41  1  0  0  0  0
 17 42  1  0  0  0  0
 19 43  1  0  0  0  0
 20 44  1  0  0  0  0
 22 45  1  0  0  0  0
 25 46  1  0  0  0  0
 26 47  1  0  0  0  0
 26 48  1  0  0  0  0
 28 49  1  0  0  0  0
 29 50  1  0  0  0  0
 29 51  1  0  0  0  0
 29 52  1  0  0  0  0
 30 53  1  0  0  0  0
 30 54  1  0  0  0  0
 30 55  1  0  0  0  0
M  END
> <Name>
20

> <IC50[uM]>
0.016

$$$$
20
  -OEChem-05192314333D
 Structure written by MMmdl.
 55 58  0     0  0  0  0  0  0999 V2000
   -6.3740   12.3524  -12.0161 C   0  0  0  0  0  0  0  0  0  0  0  0
   -6.5100   11.8065  -10.7374 C   0  0  0  0  0  0  0  0  0  0  0  0
   -7.7222   10.5841  -13.0265 C   0  0  0  0  0  0  0  0  0  0  0  0
   -6.9887   11.7756  -13.1353 C   0  0  0  0  0  0  0  0  0  0  0  0
   -7.8163   10.0177  -11.7563 C   0  0  0  0  0  0  0  0  0  0  0  0
   -7.2425   10.6185  -10.6022 C   0  0  0  0  0  0  0  0  0  0  0  0
   -7.6172    9.7487   -9.5090 C   0  0  0  0  0  0  0  0  0  0  0  0
   -8.2846    8.7289   -9.9848 N   0  0  0  0  0  0  0  0  0  0  0  0
   -8.4176    8.8659  -11.2967 N   0  0  0  0  0  0  0  0  0  0  0  0
   -7.3368    9.8884   -8.0257 C   0  0  0  0  0  0  0  0  0  0  0  0
   -4.4023   13.6480  -11.4578 N   0  0  0  0  0  0  0  0  0  0  0  0
   -3.4623   14.7747  -11.4948 C   0  0  0  0  0  0  0  0  0  0  0  0
   -5.5331   13.6158  -12.1961 C   0  0  0  0  0  0  0  0  0  0  0  0
   -5.8776   14.5022  -12.9731 O   0  0  0  0  0  0  0  0  0  0  0  0
   -5.9585   10.4860   -7.7354 C   0  0  0  0  0  0  0  0  0  0  0  0
   -5.8494   11.7555   -7.1596 C   0  0  0  0  0  0  0  0  0  0  0  0
   -4.5968   12.3068   -6.9148 C   0  0  0  0  0  0  0  0  0  0  0  0
   -3.4468   11.5860   -7.2370 C   0  0  0  0  0  0  0  0  0  0  0  0
   -3.5513   10.3089   -7.8057 C   0  0  0  0  0  0  0  0  0  0  0  0
   -4.8090    9.7654   -8.0523 C   0  0  0  0  0  0  0  0  0  0  0  0
   -2.0901   12.1669   -6.9801 C   0  0  0  0  0  0  0  0  0  0  0  0
   -1.7479   13.4121   -6.4872 C   0  0  0  0  0  0  0  0  0  0  0  0
   -0.3990   13.4663   -6.4328 N   0  0  0  0  0  0  0  0  0  0  0  0
    0.1869   12.3691   -6.8386 N   0  0  0  0  0  0  0  0  0  0  0  0
   -0.8034   11.5628   -7.1902 C   0  0  0  0  0  0  0  0  0  0  0  0
    0.4389   14.5894   -5.9640 C   0  0  0  0  0  0  0  0  0  0  0  0
    1.5042   14.2139   -4.8744 C   0  0  0  0  0  0  0  0  0  0  0  0
    2.6302   13.6295   -5.4977 O   0  0  0  0  0  0  0  0  0  0  0  0
    0.9501   13.1612   -3.9053 C   0  0  0  0  0  0  0  0  0  0  0  0
    2.0179   15.4484   -4.1037 C   0  0  0  0  0  0  0  0  0  0  0  0
   -5.4969   11.6111  -10.3560 H   0  0  0  0  0  0  0  0  0  0  0  0
   -6.9986   12.5652  -10.1084 H   0  0  0  0  0  0  0  0  0  0  0  0
   -8.1913   10.1279  -13.8857 H   0  0  0  0  0  0  0  0  0  0  0  0
   -6.8965   12.2561  -14.0981 H   0  0  0  0  0  0  0  0  0  0  0  0
   -8.0357    9.5970   -7.2556 H   0  0  0  0  0  0  0  0  0  0  0  0
   -3.8761   12.8398  -11.7222 H   0  0  0  0  0  0  0  0  0  0  0  0
   -2.6221   14.5745  -10.8136 H   0  0  0  0  0  0  0  0  0  0  0  0
   -3.0817   14.9010  -12.5191 H   0  0  0  0  0  0  0  0  0  0  0  0
   -3.9787   15.6934  -11.1797 H   0  0  0  0  0  0  0  0  0  0  0  0
   -5.2393   15.2056  -12.9549 H   0  0  0  0  0  0  0  0  0  0  0  0
   -6.7407   12.3094   -6.9043 H   0  0  0  0  0  0  0  0  0  0  0  0
   -4.5143   13.2904   -6.4764 H   0  0  0  0  0  0  0  0  0  0  0  0
   -2.6607    9.7496   -8.0512 H   0  0  0  0  0  0  0  0  0  0  0  0
   -4.8939    8.7820   -8.4907 H   0  0  0  0  0  0  0  0  0  0  0  0
   -2.4321   14.1965   -6.1989 H   0  0  0  0  0  0  0  0  0  0  0  0
   -0.6606   10.5688   -7.5878 H   0  0  0  0  0  0  0  0  0  0  0  0
    0.9713   15.0036   -6.8329 H   0  0  0  0  0  0  0  0  0  0  0  0
   -0.2256   15.3572   -5.5409 H   0  0  0  0  0  0  0  0  0  0  0  0
    3.2752   13.4021   -4.8384 H   0  0  0  0  0  0  0  0  0  0  0  0
    1.7145   12.9160   -3.1533 H   0  0  0  0  0  0  0  0  0  0  0  0
    0.0563   13.5598   -3.4030 H   0  0  0  0  0  0  0  0  0  0  0  0
    0.6818   12.2530   -4.4649 H   0  0  0  0  0  0  0  0  0  0  0  0
    2.7591   15.1317   -3.3552 H   0  0  0  0  0  0  0  0  0  0  0  0
    2.4859   16.1517   -4.8082 H   0  0  0  0  0  0  0  0  0  0  0  0
    1.1747   15.9421   -3.5985 H   0  0  0  0  0  0  0  0  0  0  0  0
  1  2  1  0  0  0  0
  1  4  1  0  0  0  0
  1 13  2  3  0  0  0
  2  6  1  0  0  0  0
  3  4  2  0  0  0  0
  3  5  1  0  0  0  0
  5  6  2  0  0  0  0
  5  9  1  0  0  0  0
  6  7  1  0  0  0  0
  7  8  1  0  0  0  0
  7 10  2  3  0  0  0
  8  9  2  0  0  0  0
 10 15  1  0  0  0  0
 11 12  1  0  0  0  0
 11 13  1  0  0  0  0
 13 14  1  0  0  0  0
 15 16  2  0  0  0  0
 15 20  1  0  0  0  0
 16 17  1  0  0  0  0
 17 18  2  0  0  0  0
 18 19  1  0  0  0  0
 18 21  1  0  0  0  0
 19 20  2  0  0  0  0
 21 22  2  0  0  0  0
 21 25  1  0  0  0  0
 22 23  1  0  0  0  0
 23 24  1  0  0  0  0
 23 26  1  0  0  0  0
 24 25  2  0  0  0  0
 26 27  1  0  0  0  0
 27 28  1  0  0  0  0
 27 29  1  0  0  0  0
 27 30  1  0  0  0  0
  2 31  1  0  0  0  0
  2 32  1  0  0  0  0
  3 33  1  0  0  0  0
  4 34  1  0  0  0  0
 10 35  1  0  0  0  0
 11 36  1  0  0  0  0
 12 37  1  0  0  0  0
 12 38  1  0  0  0  0
 12 39  1  0  0  0  0
 14 40  1  0  0  0  0
 16 41  1  0  0  0  0
 17 42  1  0  0  0  0
 19 43  1  0  0  0  0
 20 44  1  0  0  0  0
 22 45  1  0  0  0  0
 25 46  1  0  0  0  0
 26 47  1  0  0  0  0
 26 48  1  0  0  0  0
 28 49  1  0  0  0  0
 29 50  1  0  0  0  0
 29 51  1  0  0  0  0
 29 52  1  0  0  0  0
 30 53  1  0  0  0  0
 30 54  1  0  0  0  0
 30 55  1  0  0  0  0
M  END
> <Name>
20

> <IC50[uM]>
0.016

$$$$
20
  -OEChem-05192314333D
 Structure written by MMmdl.
 55 58  0     0  0  0  0  0  0999 V2000
   -6.3740   12.3524  -12.0161 C   0  0  0  0  0  0  0  0  0  0  0  0
   -6.5100   11.8065  -10.7374 C   0  0  0  0  0  0  0  0  0  0  0  0
   -7.7222   10.5841  -13.0265 C   0  0  0  0  0  0  0  0  0  0  0  0
   -6.9887   11.7756  -13.1353 C   0  0  0  0  0  0  0  0  0  0  0  0
   -7.8163   10.0177  -11.7563 C   0  0  0  0  0  0  0  0  0  0  0  0
   -7.2425   10.6185  -10.6022 C   0  0  0  0  0  0  0  0  0  0  0  0
   -7.6172    9.7487   -9.5090 C   0  0  0  0  0  0  0  0  0  0  0  0
   -8.2846    8.7289   -9.9848 N   0  0  0  0  0  0  0  0  0  0  0  0
   -8.4176    8.8659  -11.2967 N   0  0  0  0  0  0  0  0  0  0  0  0
   -7.3368    9.8884   -8.0257 C   0  0  0  0  0  0  0  0  0  0  0  0
   -4.4023   13.6480  -11.4578 N   0  0  0  0  0  0  0  0  0  0  0  0
   -3.4623   14.7747  -11.4948 C   0  0  0  0  0  0  0  0  0  0  0  0
   -5.5331   13.6158  -12.1961 C   0  0  0  0  0  0  0  0  0  0  0  0
   -5.8776   14.5022  -12.9731 O   0  0  0  0  0  0  0  0  0  0  0  0
   -5.9585   10.4860   -7.7354 C   0  0  0  0  0  0  0  0  0  0  0  0
   -5.8494   11.7555   -7.1596 C   0  0  0  0  0  0  0  0  0  0  0  0
   -4.5968   12.3068   -6.9148 C   0  0  0  0  0  0  0  0  0  0  0  0
   -3.4468   11.5860   -7.2370 C   0  0  0  0  0  0  0  0  0  0  0  0
   -3.5513   10.3089   -7.8057 C   0  0  0  0  0  0  0  0  0  0  0  0
   -4.8090    9.7654   -8.0523 C   0  0  0  0  0  0  0  0  0  0  0  0
   -2.0901   12.1669   -6.9801 C   0  0  0  0  0  0  0  0  0  0  0  0
   -1.7479   13.4121   -6.4872 C   0  0  0  0  0  0  0  0  0  0  0  0
   -0.3990   13.4663   -6.4328 N   0  0  0  0  0  0  0  0  0  0  0  0
    0.1869   12.3691   -6.8386 N   0  0  0  0  0  0  0  0  0  0  0  0
   -0.8034   11.5628   -7.1902 C   0  0  0  0  0  0  0  0  0  0  0  0
    0.4389   14.5894   -5.9640 C   0  0  0  0  0  0  0  0  0  0  0  0
    1.5042   14.2139   -4.8744 C   0  0  0  0  0  0  0  0  0  0  0  0
    2.6302   13.6295   -5.4977 O   0  0  0  0  0  0  0  0  0  0  0  0
    0.9501   13.1612   -3.9053 C   0  0  0  0  0  0  0  0  0  0  0  0
    2.0179   15.4484   -4.1037 C   0  0  0  0  0  0  0  0  0  0  0  0
   -6.0641   12.2854   -9.8782 H   0  0  0  0  0  0  0  0  0  0  0  0
   -8.1913   10.1279  -13.8857 H   0  0  0  0  0  0  0  0  0  0  0  0
   -6.8965   12.2561  -14.0981 H   0  0  0  0  0  0  0  0  0  0  0  0
   -8.0357    9.5970   -7.2556 H   0  0  0  0  0  0  0  0  0  0  0  0
   -3.8761   12.8398  -11.7222 H   0  0  0  0  0  0  0  0  0  0  0  0
   -2.6221   14.5745  -10.8136 H   0  0  0  0  0  0  0  0  0  0  0  0
   -3.0817   14.9010  -12.5191 H   0  0  0  0  0  0  0  0  0  0  0  0
   -3.9787   15.6934  -11.1797 H   0  0  0  0  0  0  0  0  0  0  0  0
   -5.2393   15.2056  -12.9549 H   0  0  0  0  0  0  0  0  0  0  0  0
   -6.7407   12.3094   -6.9043 H   0  0  0  0  0  0  0  0  0  0  0  0
   -4.5143   13.2904   -6.4764 H   0  0  0  0  0  0  0  0  0  0  0  0
   -3.4456   11.1385   -6.2321 H   0  0  0  0  0  0  0  0  0  0  0  0
   -2.6607    9.7496   -8.0512 H   0  0  0  0  0  0  0  0  0  0  0  0
   -4.8939    8.7820   -8.4907 H   0  0  0  0  0  0  0  0  0  0  0  0
   -2.4321   14.1965   -6.1989 H   0  0  0  0  0  0  0  0  0  0  0  0
   -0.6606   10.5688   -7.5878 H   0  0  0  0  0  0  0  0  0  0  0  0
    0.9713   15.0036   -6.8329 H   0  0  0  0  0  0  0  0  0  0  0  0
   -0.2256   15.3572   -5.5409 H   0  0  0  0  0  0  0  0  0  0  0  0
    3.2752   13.4021   -4.8384 H   0  0  0  0  0  0  0  0  0  0  0  0
    1.7145   12.9160   -3.1533 H   0  0  0  0  0  0  0  0  0  0  0  0
    0.0563   13.5598   -3.4030 H   0  0  0  0  0  0  0  0  0  0  0  0
    0.6818   12.2530   -4.4649 H   0  0  0  0  0  0  0  0  0  0  0  0
    2.7591   15.1317   -3.3552 H   0  0  0  0  0  0  0  0  0  0  0  0
    2.4859   16.1517   -4.8082 H   0  0  0  0  0  0  0  0  0  0  0  0
    1.1747   15.9421   -3.5985 H   0  0  0  0  0  0  0  0  0  0  0  0
  1  2  1  0  0  0  0
  1  4  1  0  0  0  0
  1 13  2  3  0  0  0
  2  6  2  0  0  0  0
  3  4  2  0  0  0  0
  3  5  1  0  0  0  0
  5  6  1  0  0  0  0
  5  9  2  0  0  0  0
  6  7  1  0  0  0  0
  7  8  2  0  0  0  0
  7 10  1  0  0  0  0
  8  9  1  0  0  0  0
 10 15  2  0  0  0  0
 11 12  1  0  0  0  0
 11 13  1  0  0  0  0
 13 14  1  0  0  0  0
 15 16  1  0  0  0  0
 15 20  1  0  0  0  0
 16 17  2  0  0  0  0
 17 18  1  0  0  0  0
 18 19  1  0  0  0  0
 18 21  1  0  0  0  0
 19 20  2  0  0  0  0
 21 22  2  0  0  0  0
 21 25  1  0  0  0  0
 22 23  1  0  0  0  0
 23 24  1  0  0  0  0
 23 26  1  0  0  0  0
 24 25  2  0  0  0  0
 26 27  1  0  0  0  0
 27 28  1  0  0  0  0
 27 29  1  0  0  0  0
 27 30  1  0  0  0  0
  2 31  1  0  0  0  0
  3 32  1  0  0  0  0
  4 33  1  0  0  0  0
 10 34  1  0  0  0  0
 11 35  1  0  0  0  0
 12 36  1  0  0  0  0
 12 37  1  0  0  0  0
 12 38  1  0  0  0  0
 14 39  1  0  0  0  0
 16 40  1  0  0  0  0
 17 41  1  0  0  0  0
 18 42  1  0  0  0  0
 19 43  1  0  0  0  0
 20 44  1  0  0  0  0
 22 45  1  0  0  0  0
 25 46  1  0  0  0  0
 26 47  1  0  0  0  0
 26 48  1  0  0  0  0
 28 49  1  0  0  0  0
 29 50  1  0  0  0  0
 29 51  1  0  0  0  0
 29 52  1  0  0  0  0
 30 53  1  0  0  0  0
 30 54  1  0  0  0  0
 30 55  1  0  0  0  0
M  END
> <Name>
20

> <IC50[uM]>
0.016

$$$$
20
  -OEChem-05192314333D
 Structure written by MMmdl.
 55 58  0     0  0  0  0  0  0999 V2000
   -6.3740   12.3524  -12.0161 C   0  0  0  0  0  0  0  0  0  0  0  0
   -6.5100   11.8065  -10.7374 C   0  0  0  0  0  0  0  0  0  0  0  0
   -7.7222   10.5841  -13.0265 C   0  0  0  0  0  0  0  0  0  0  0  0
   -6.9887   11.7756  -13.1353 C   0  0  0  0  0  0  0  0  0  0  0  0
   -7.8163   10.0177  -11.7563 C   0  0  0  0  0  0  0  0  0  0  0  0
   -7.2425   10.6185  -10.6022 C   0  0  0  0  0  0  0  0  0  0  0  0
   -7.6172    9.7487   -9.5090 C   0  0  0  0  0  0  0  0  0  0  0  0
   -8.2846    8.7289   -9.9848 N   0  0  0  0  0  0  0  0  0  0  0  0
   -8.4176    8.8659  -11.2967 N   0  0  0  0  0  0  0  0  0  0  0  0
   -7.3368    9.8884   -8.0257 C   0  0  0  0  0  0  0  0  0  0  0  0
   -4.4023   13.6480  -11.4578 N   0  0  0  0  0  0  0  0  0  0  0  0
   -3.4623   14.7747  -11.4948 C   0  0  0  0  0  0  0  0  0  0  0  0
   -5.5331   13.6158  -12.1961 C   0  0  0  0  0  0  0  0  0  0  0  0
   -5.8776   14.5022  -12.9731 O   0  0  0  0  0  0  0  0  0  0  0  0
   -5.9585   10.4860   -7.7354 C   0  0  0  0  0  0  0  0  0  0  0  0
   -5.8494   11.7555   -7.1596 C   0  0  0  0  0  0  0  0  0  0  0  0
   -4.5968   12.3068   -6.9148 C   0  0  0  0  0  0  0  0  0  0  0  0
   -3.4468   11.5860   -7.2370 C   0  0  0  0  0  0  0  0  0  0  0  0
   -3.5513   10.3089   -7.8057 C   0  0  0  0  0  0  0  0  0  0  0  0
   -4.8090    9.7654   -8.0523 C   0  0  0  0  0  0  0  0  0  0  0  0
   -2.0901   12.1669   -6.9801 C   0  0  0  0  0  0  0  0  0  0  0  0
   -1.7479   13.4121   -6.4872 C   0  0  0  0  0  0  0  0  0  0  0  0
   -0.3990   13.4663   -6.4328 N   0  0  0  0  0  0  0  0  0  0  0  0
    0.1869   12.3691   -6.8386 N   0  0  0  0  0  0  0  0  0  0  0  0
   -0.8034   11.5628   -7.1902 C   0  0  0  0  0  0  0  0  0  0  0  0
    0.4389   14.5894   -5.9640 C   0  0  0  0  0  0  0  0  0  0  0  0
    1.5042   14.2139   -4.8744 C   0  0  0  0  0  0  0  0  0  0  0  0
    2.6302   13.6295   -5.4977 O   0  0  0  0  0  0  0  0  0  0  0  0
    0.9501   13.1612   -3.9053 C   0  0  0  0  0  0  0  0  0  0  0  0
    2.0179   15.4484   -4.1037 C   0  0  0  0  0  0  0  0  0  0  0  0
   -6.0641   12.2854   -9.8782 H   0  0  0  0  0  0  0  0  0  0  0  0
   -8.1913   10.1279  -13.8857 H   0  0  0  0  0  0  0  0  0  0  0  0
   -6.8965   12.2561  -14.0981 H   0  0  0  0  0  0  0  0  0  0  0  0
   -8.0357    9.5970   -7.2556 H   0  0  0  0  0  0  0  0  0  0  0  0
   -3.8761   12.8398  -11.7222 H   0  0  0  0  0  0  0  0  0  0  0  0
   -2.6221   14.5745  -10.8136 H   0  0  0  0  0  0  0  0  0  0  0  0
   -3.0817   14.9010  -12.5191 H   0  0  0  0  0  0  0  0  0  0  0  0
   -3.9787   15.6934  -11.1797 H   0  0  0  0  0  0  0  0  0  0  0  0
   -5.2393   15.2056  -12.9549 H   0  0  0  0  0  0  0  0  0  0  0  0
   -6.7407   12.3094   -6.9043 H   0  0  0  0  0  0  0  0  0  0  0  0
   -4.5143   13.2904   -6.4764 H   0  0  0  0  0  0  0  0  0  0  0  0
   -2.6607    9.7496   -8.0512 H   0  0  0  0  0  0  0  0  0  0  0  0
   -4.8619    8.8217   -7.4897 H   0  0  0  0  0  0  0  0  0  0  0  0
   -4.8560    9.5526   -9.1305 H   0  0  0  0  0  0  0  0  0  0  0  0
   -2.4321   14.1965   -6.1989 H   0  0  0  0  0  0  0  0  0  0  0  0
   -0.6606   10.5688   -7.5878 H   0  0  0  0  0  0  0  0  0  0  0  0
    0.9713   15.0036   -6.8329 H   0  0  0  0  0  0  0  0  0  0  0  0
   -0.2256   15.3572   -5.5409 H   0  0  0  0  0  0  0  0  0  0  0  0
    3.2752   13.4021   -4.8384 H   0  0  0  0  0  0  0  0  0  0  0  0
    1.7145   12.9160   -3.1533 H   0  0  0  0  0  0  0  0  0  0  0  0
    0.0563   13.5598   -3.4030 H   0  0  0  0  0  0  0  0  0  0  0  0
    0.6818   12.2530   -4.4649 H   0  0  0  0  0  0  0  0  0  0  0  0
    2.7591   15.1317   -3.3552 H   0  0  0  0  0  0  0  0  0  0  0  0
    2.4859   16.1517   -4.8082 H   0  0  0  0  0  0  0  0  0  0  0  0
    1.1747   15.9421   -3.5985 H   0  0  0  0  0  0  0  0  0  0  0  0
  1  2  1  0  0  0  0
  1  4  1  0  0  0  0
  1 13  2  3  0  0  0
  2  6  2  0  0  0  0
  3  4  2  0  0  0  0
  3  5  1  0  0  0  0
  5  6  1  0  0  0  0
  5  9  2  0  0  0  0
  6  7  1  0  0  0  0
  7  8  2  0  0  0  0
  7 10  1  0  0  0  0
  8  9  1  0  0  0  0
 10 15  2  3  0  0  0
 11 12  1  0  0  0  0
 11 13  1  0  0  0  0
 13 14  1  0  0  0  0
 15 16  1  0  0  0  0
 15 20  1  0  0  0  0
 16 17  2  0  0  0  0
 17 18  1  0  0  0  0
 18 19  2  0  0  0  0
 18 21  1  0  0  0  0
 19 20  1  0  0  0  0
 21 22  2  0  0  0  0
 21 25  1  0  0  0  0
 22 23  1  0  0  0  0
 23 24  1  0  0  0  0
 23 26  1  0  0  0  0
 24 25  2  0  0  0  0
 26 27  1  0  0  0  0
 27 28  1  0  0  0  0
 27 29  1  0  0  0  0
 27 30  1  0  0  0  0
  2 31  1  0  0  0  0
  3 32  1  0  0  0  0
  4 33  1  0  0  0  0
 10 34  1  0  0  0  0
 11 35  1  0  0  0  0
 12 36  1  0  0  0  0
 12 37  1  0  0  0  0
 12 38  1  0  0  0  0
 14 39  1  0  0  0  0
 16 40  1  0  0  0  0
 17 41  1  0  0  0  0
 19 42  1  0  0  0  0
 20 43  1  0  0  0  0
 20 44  1  0  0  0  0
 22 45  1  0  0  0  0
 25 46  1  0  0  0  0
 26 47  1  0  0  0  0
 26 48  1  0  0  0  0
 28 49  1  0  0  0  0
 29 50  1  0  0  0  0
 29 51  1  0  0  0  0
 29 52  1  0  0  0  0
 30 53  1  0  0  0  0
 30 54  1  0  0  0  0
 30 55  1  0  0  0  0
M  END
> <Name>
20

> <IC50[uM]>
0.016

$$$$
