30
  -OEChem-05192314333D
 Structure written by MMmdl.
 53 57  0     1  0  0  0  0  0999 V2000
   -6.3720   12.3564  -12.0094 C   0  0  0  0  0  0  0  0  0  0  0  0
   -6.5328   11.8103  -10.7336 C   0  0  0  0  0  0  0  0  0  0  0  0
   -7.7318   10.5755  -13.0290 C   0  0  0  0  0  0  0  0  0  0  0  0
   -6.9898   11.7633  -13.1279 C   0  0  0  0  0  0  0  0  0  0  0  0
   -7.8210   10.0065  -11.7558 C   0  0  0  0  0  0  0  0  0  0  0  0
   -7.2477   10.6184  -10.6026 C   0  0  0  0  0  0  0  0  0  0  0  0
   -7.6140    9.7458   -9.5136 C   0  0  0  0  0  0  0  0  0  0  0  0
   -8.2690    8.7218   -9.9879 N   0  0  0  0  0  0  0  0  0  0  0  0
   -8.4092    8.8538  -11.2990 N   0  0  0  0  0  0  0  0  0  0  0  0
   -7.3381    9.8926   -8.0280 C   0  0  0  0  0  0  0  0  0  0  0  0
   -4.3458   13.7121  -11.5140 N   0  0  0  0  0  0  0  0  0  0  0  0
   -5.5478   13.6364  -12.1864 C   0  0  0  0  0  0  0  0  0  0  0  0
   -5.9572   14.5395  -12.9136 O   0  0  0  0  0  0  0  0  0  0  0  0
   -5.9581   10.4851   -7.7363 C   0  0  0  0  0  0  0  0  0  0  0  0
   -4.8068    9.7633   -8.0566 C   0  0  0  0  0  0  0  0  0  0  0  0
   -3.5506   10.3101   -7.8085 C   0  0  0  0  0  0  0  0  0  0  0  0
   -3.4405   11.5856   -7.2383 C   0  0  0  0  0  0  0  0  0  0  0  0
   -4.5911   12.3019   -6.9155 C   0  0  0  0  0  0  0  0  0  0  0  0
   -5.8461   11.7538   -7.1583 C   0  0  0  0  0  0  0  0  0  0  0  0
   -2.0993   12.1777   -6.9729 C   0  0  0  0  0  0  0  0  0  0  0  0
   -1.7708   13.4214   -6.4416 C   0  0  0  0  0  0  0  0  0  0  0  0
   -0.4313   13.4856   -6.3949 N   0  0  0  0  0  0  0  0  0  0  0  0
    0.1723   12.4145   -6.8299 N   0  0  0  0  0  0  0  0  0  0  0  0
   -0.8042   11.6008   -7.2039 C   0  0  0  0  0  0  0  0  0  0  0  0
    0.3889   14.5981   -5.9187 C   0  0  0  0  0  0  0  0  0  0  0  0
   -3.6987   12.5799  -10.8351 C   0  0  0  0  0  0  0  0  0  0  0  0
   -2.1930   12.9387  -10.9658 C   0  0  2  0  0  0  0  0  0  0  0  0
   -2.1862   14.4653  -10.9438 C   0  0  0  0  0  0  0  0  0  0  0  0
   -3.5086   14.9068  -11.5988 C   0  0  0  0  0  0  0  0  0  0  0  0
   -1.6500   12.4417  -12.1854 O   0  0  0  0  0  0  0  0  0  0  0  0
   -6.1130   12.2997   -9.8672 H   0  0  0  0  0  0  0  0  0  0  0  0
   -8.2070   10.1267  -13.8888 H   0  0  0  0  0  0  0  0  0  0  0  0
   -6.8894   12.2377  -14.0929 H   0  0  0  0  0  0  0  0  0  0  0  0
   -8.6124    7.9552   -9.4454 H   0  0  0  0  0  0  0  0  0  0  0  0
   -8.1029   10.5522   -7.5921 H   0  0  0  0  0  0  0  0  0  0  0  0
   -7.4002    8.8994   -7.5593 H   0  0  0  0  0  0  0  0  0  0  0  0
   -4.8906    8.7807   -8.4969 H   0  0  0  0  0  0  0  0  0  0  0  0
   -2.6603    9.7509   -8.0557 H   0  0  0  0  0  0  0  0  0  0  0  0
   -4.5083   13.2849   -6.4758 H   0  0  0  0  0  0  0  0  0  0  0  0
   -6.7358   12.3089   -6.9000 H   0  0  0  0  0  0  0  0  0  0  0  0
   -2.4624   14.1888   -6.1268 H   0  0  0  0  0  0  0  0  0  0  0  0
   -0.6455   10.6216   -7.6310 H   0  0  0  0  0  0  0  0  0  0  0  0
    1.4531   14.3351   -6.0101 H   0  0  0  0  0  0  0  0  0  0  0  0
    0.1793   15.4930   -6.5230 H   0  0  0  0  0  0  0  0  0  0  0  0
    0.1513   14.8037   -4.8645 H   0  0  0  0  0  0  0  0  0  0  0  0
   -4.0045   12.5193   -9.7802 H   0  0  0  0  0  0  0  0  0  0  0  0
   -3.9276   11.6290  -11.3384 H   0  0  0  0  0  0  0  0  0  0  0  0
   -1.6452   12.5495  -10.0949 H   0  0  0  0  0  0  0  0  0  0  0  0
   -2.1318   14.8321   -9.9082 H   0  0  0  0  0  0  0  0  0  0  0  0
   -1.3293   14.8517  -11.5151 H   0  0  0  0  0  0  0  0  0  0  0  0
   -3.3493   15.2019  -12.6464 H   0  0  0  0  0  0  0  0  0  0  0  0
   -3.9607   15.7439  -11.0467 H   0  0  0  0  0  0  0  0  0  0  0  0
   -0.7305   12.6738  -12.2410 H   0  0  0  0  0  0  0  0  0  0  0  0
  1  2  2  0  0  0  0
  1  4  1  0  0  0  0
  1 12  1  0  0  0  0
  2  6  1  0  0  0  0
  3  4  2  0  0  0  0
  3  5  1  0  0  0  0
  5  6  1  0  0  0  0
  5  9  2  0  0  0  0
  6  7  2  0  0  0  0
  7  8  1  0  0  0  0
  7 10  1  0  0  0  0
  8  9  1  0  0  0  0
 10 14  1  0  0  0  0
 11 12  1  0  0  0  0
 11 26  1  0  0  0  0
 11 29  1  0  0  0  0
 12 13  2  0  0  0  0
 14 15  2  0  0  0  0
 14 19  1  0  0  0  0
 15 16  1  0  0  0  0
 16 17  2  0  0  0  0
 17 18  1  0  0  0  0
 17 20  1  0  0  0  0
 18 19  2  0  0  0  0
 20 21  2  0  0  0  0
 20 24  1  0  0  0  0
 21 22  1  0  0  0  0
 22 23  1  0  0  0  0
 22 25  1  0  0  0  0
 23 24  2  0  0  0  0
 26 27  1  0  0  0  0
 27 28  1  0  0  0  0
 27 30  1  0  0  0  0
 28 29  1  0  0  0  0
  2 31  1  0  0  0  0
  3 32  1  0  0  0  0
  4 33  1  0  0  0  0
  8 34  1  0  0  0  0
 10 35  1  0  0  0  0
 10 36  1  0  0  0  0
 15 37  1  0  0  0  0
 16 38  1  0  0  0  0
 18 39  1  0  0  0  0
 19 40  1  0  0  0  0
 21 41  1  0  0  0  0
 24 42  1  0  0  0  0
 25 43  1  0  0  0  0
 25 44  1  0  0  0  0
 25 45  1  0  0  0  0
 26 46  1  0  0  0  0
 26 47  1  0  0  0  0
 27 48  1  0  0  0  0
 28 49  1  0  0  0  0
 28 50  1  0  0  0  0
 29 51  1  0  0  0  0
 29 52  1  0  0  0  0
 30 53  1  0  0  0  0
M  END
> <Name>
30

> <IC50[uM]>
0.003

$$$$
30
  -OEChem-05192314333D
 Structure written by MMmdl.
 53 57  0     1  0  0  0  0  0999 V2000
   -6.3720   12.3564  -12.0094 C   0  0  0  0  0  0  0  0  0  0  0  0
   -6.5328   11.8103  -10.7336 C   0  0  0  0  0  0  0  0  0  0  0  0
   -7.7318   10.5755  -13.0290 C   0  0  0  0  0  0  0  0  0  0  0  0
   -6.9898   11.7633  -13.1279 C   0  0  0  0  0  0  0  0  0  0  0  0
   -7.8210   10.0065  -11.7558 C   0  0  0  0  0  0  0  0  0  0  0  0
   -7.2477   10.6184  -10.6026 C   0  0  0  0  0  0  0  0  0  0  0  0
   -7.6140    9.7458   -9.5136 C   0  0  0  0  0  0  0  0  0  0  0  0
   -8.2690    8.7218   -9.9879 N   0  0  0  0  0  0  0  0  0  0  0  0
   -8.4092    8.8538  -11.2990 N   0  0  0  0  0  0  0  0  0  0  0  0
   -7.3381    9.8926   -8.0280 C   0  0  0  0  0  0  0  0  0  0  0  0
   -4.3458   13.7121  -11.5140 N   0  0  0  0  0  0  0  0  0  0  0  0
   -5.5478   13.6364  -12.1864 C   0  0  0  0  0  0  0  0  0  0  0  0
   -5.9572   14.5395  -12.9136 O   0  0  0  0  0  0  0  0  0  0  0  0
   -5.9581   10.4851   -7.7363 C   0  0  0  0  0  0  0  0  0  0  0  0
   -4.8068    9.7633   -8.0566 C   0  0  0  0  0  0  0  0  0  0  0  0
   -3.5506   10.3101   -7.8085 C   0  0  0  0  0  0  0  0  0  0  0  0
   -3.4405   11.5856   -7.2383 C   0  0  0  0  0  0  0  0  0  0  0  0
   -4.5911   12.3019   -6.9155 C   0  0  0  0  0  0  0  0  0  0  0  0
   -5.8461   11.7538   -7.1583 C   0  0  0  0  0  0  0  0  0  0  0  0
   -2.0993   12.1777   -6.9729 C   0  0  0  0  0  0  0  0  0  0  0  0
   -1.7708   13.4214   -6.4416 C   0  0  0  0  0  0  0  0  0  0  0  0
   -0.4313   13.4856   -6.3949 N   0  0  0  0  0  0  0  0  0  0  0  0
    0.1723   12.4145   -6.8299 N   0  0  0  0  0  0  0  0  0  0  0  0
   -0.8042   11.6008   -7.2039 C   0  0  0  0  0  0  0  0  0  0  0  0
    0.3889   14.5981   -5.9187 C   0  0  0  0  0  0  0  0  0  0  0  0
   -3.6987   12.5799  -10.8351 C   0  0  0  0  0  0  0  0  0  0  0  0
   -2.1930   12.9387  -10.9658 C   0  0  2  0  0  0  0  0  0  0  0  0
   -2.1862   14.4653  -10.9438 C   0  0  0  0  0  0  0  0  0  0  0  0
   -3.5086   14.9068  -11.5988 C   0  0  0  0  0  0  0  0  0  0  0  0
   -1.6500   12.4417  -12.1854 O   0  0  0  0  0  0  0  0  0  0  0  0
   -6.1130   12.2997   -9.8672 H   0  0  0  0  0  0  0  0  0  0  0  0
   -8.2070   10.1267  -13.8888 H   0  0  0  0  0  0  0  0  0  0  0  0
   -6.8894   12.2377  -14.0929 H   0  0  0  0  0  0  0  0  0  0  0  0
   -8.8844    8.1955  -11.8828 H   0  0  0  0  0  0  0  0  0  0  0  0
   -8.1029   10.5522   -7.5921 H   0  0  0  0  0  0  0  0  0  0  0  0
   -7.4002    8.8994   -7.5593 H   0  0  0  0  0  0  0  0  0  0  0  0
   -4.8906    8.7807   -8.4969 H   0  0  0  0  0  0  0  0  0  0  0  0
   -2.6603    9.7509   -8.0557 H   0  0  0  0  0  0  0  0  0  0  0  0
   -4.5083   13.2849   -6.4758 H   0  0  0  0  0  0  0  0  0  0  0  0
   -6.7358   12.3089   -6.9000 H   0  0  0  0  0  0  0  0  0  0  0  0
   -2.4624   14.1888   -6.1268 H   0  0  0  0  0  0  0  0  0  0  0  0
   -0.6455   10.6216   -7.6310 H   0  0  0  0  0  0  0  0  0  0  0  0
    1.4531   14.3351   -6.0101 H   0  0  0  0  0  0  0  0  0  0  0  0
    0.1793   15.4930   -6.5230 H   0  0  0  0  0  0  0  0  0  0  0  0
    0.1513   14.8037   -4.8645 H   0  0  0  0  0  0  0  0  0  0  0  0
   -4.0045   12.5193   -9.7802 H   0  0  0  0  0  0  0  0  0  0  0  0
   -3.9276   11.6290  -11.3384 H   0  0  0  0  0  0  0  0  0  0  0  0
   -1.6452   12.5495  -10.0949 H   0  0  0  0  0  0  0  0  0  0  0  0
   -2.1318   14.8321   -9.9082 H   0  0  0  0  0  0  0  0  0  0  0  0
   -1.3293   14.8517  -11.5151 H   0  0  0  0  0  0  0  0  0  0  0  0
   -3.3493   15.2019  -12.6464 H   0  0  0  0  0  0  0  0  0  0  0  0
   -3.9607   15.7439  -11.0467 H   0  0  0  0  0  0  0  0  0  0  0  0
   -0.7305   12.6738  -12.2410 H   0  0  0  0  0  0  0  0  0  0  0  0
  1  2  2  0  0  0  0
  1  4  1  0  0  0  0
  1 12  1  0  0  0  0
  2  6  1  0  0  0  0
  3  4  2  0  0  0  0
  3  5  1  0  0  0  0
  5  6  2  0  0  0  0
  5  9  1  0  0  0  0
  6  7  1  0  0  0  0
  7  8  2  0  0  0  0
  7 10  1  0  0  0  0
  8  9  1  0  0  0  0
 10 14  1  0  0  0  0
 11 12  1  0  0  0  0
 11 26  1  0  0  0  0
 11 29  1  0  0  0  0
 12 13  2  0  0  0  0
 14 15  2  0  0  0  0
 14 19  1  0  0  0  0
 15 16  1  0  0  0  0
 16 17  2  0  0  0  0
 17 18  1  0  0  0  0
 17 20  1  0  0  0  0
 18 19  2  0  0  0  0
 20 21  2  0  0  0  0
 20 24  1  0  0  0  0
 21 22  1  0  0  0  0
 22 23  1  0  0  0  0
 22 25  1  0  0  0  0
 23 24  2  0  0  0  0
 26 27  1  0  0  0  0
 27 28  1  0  0  0  0
 27 30  1  0  0  0  0
 28 29  1  0  0  0  0
  2 31  1  0  0  0  0
  3 32  1  0  0  0  0
  4 33  1  0  0  0  0
  9 34  1  0  0  0  0
 10 35  1  0  0  0  0
 10 36  1  0  0  0  0
 15 37  1  0  0  0  0
 16 38  1  0  0  0  0
 18 39  1  0  0  0  0
 19 40  1  0  0  0  0
 21 41  1  0  0  0  0
 24 42  1  0  0  0  0
 25 43  1  0  0  0  0
 25 44  1  0  0  0  0
 25 45  1  0  0  0  0
 26 46  1  0  0  0  0
 26 47  1  0  0  0  0
 27 48  1  0  0  0  0
 28 49  1  0  0  0  0
 28 50  1  0  0  0  0
 29 51  1  0  0  0  0
 29 52  1  0  0  0  0
 30 53  1  0  0  0  0
M  END
> <Name>
30

> <IC50[uM]>
0.003

$$$$
30
  -OEChem-05192314333D
 Structure written by MMmdl.
 53 57  0     1  0  0  0  0  0999 V2000
   -6.3720   12.3564  -12.0094 C   0  0  0  0  0  0  0  0  0  0  0  0
   -6.5328   11.8103  -10.7336 C   0  0  0  0  0  0  0  0  0  0  0  0
   -7.7318   10.5755  -13.0290 C   0  0  0  0  0  0  0  0  0  0  0  0
   -6.9898   11.7633  -13.1279 C   0  0  0  0  0  0  0  0  0  0  0  0
   -7.8210   10.0065  -11.7558 C   0  0  0  0  0  0  0  0  0  0  0  0
   -7.2477   10.6184  -10.6026 C   0  0  0  0  0  0  0  0  0  0  0  0
   -7.6140    9.7458   -9.5136 C   0  0  0  0  0  0  0  0  0  0  0  0
   -8.2690    8.7218   -9.9879 N   0  0  0  0  0  0  0  0  0  0  0  0
   -8.4092    8.8538  -11.2990 N   0  0  0  0  0  0  0  0  0  0  0  0
   -7.3381    9.8926   -8.0280 C   0  0  0  0  0  0  0  0  0  0  0  0
   -4.3458   13.7121  -11.5140 N   0  0  0  0  0  0  0  0  0  0  0  0
   -5.5478   13.6364  -12.1864 C   0  0  0  0  0  0  0  0  0  0  0  0
   -5.9572   14.5395  -12.9136 O   0  0  0  0  0  0  0  0  0  0  0  0
   -5.9581   10.4851   -7.7363 C   0  0  0  0  0  0  0  0  0  0  0  0
   -4.8068    9.7633   -8.0566 C   0  0  0  0  0  0  0  0  0  0  0  0
   -3.5506   10.3101   -7.8085 C   0  0  0  0  0  0  0  0  0  0  0  0
   -3.4405   11.5856   -7.2383 C   0  0  0  0  0  0  0  0  0  0  0  0
   -4.5911   12.3019   -6.9155 C   0  0  0  0  0  0  0  0  0  0  0  0
   -5.8461   11.7538   -7.1583 C   0  0  0  0  0  0  0  0  0  0  0  0
   -2.0993   12.1777   -6.9729 C   0  0  0  0  0  0  0  0  0  0  0  0
   -1.7708   13.4214   -6.4416 C   0  0  0  0  0  0  0  0  0  0  0  0
   -0.4313   13.4856   -6.3949 N   0  0  0  0  0  0  0  0  0  0  0  0
    0.1723   12.4145   -6.8299 N   0  0  0  0  0  0  0  0  0  0  0  0
   -0.8042   11.6008   -7.2039 C   0  0  0  0  0  0  0  0  0  0  0  0
    0.3889   14.5981   -5.9187 C   0  0  0  0  0  0  0  0  0  0  0  0
   -3.6987   12.5799  -10.8351 C   0  0  0  0  0  0  0  0  0  0  0  0
   -2.1930   12.9387  -10.9658 C   0  0  2  0  0  0  0  0  0  0  0  0
   -2.1862   14.4653  -10.9438 C   0  0  0  0  0  0  0  0  0  0  0  0
   -3.5086   14.9068  -11.5988 C   0  0  0  0  0  0  0  0  0  0  0  0
   -1.6500   12.4417  -12.1854 O   0  0  0  0  0  0  0  0  0  0  0  0
   -6.1130   12.2997   -9.8672 H   0  0  0  0  0  0  0  0  0  0  0  0
   -8.2070   10.1267  -13.8888 H   0  0  0  0  0  0  0  0  0  0  0  0
   -6.8894   12.2377  -14.0929 H   0  0  0  0  0  0  0  0  0  0  0  0
   -6.6683    9.1972   -9.6350 H   0  0  0  0  0  0  0  0  0  0  0  0
   -8.1029   10.5522   -7.5921 H   0  0  0  0  0  0  0  0  0  0  0  0
   -7.4002    8.8994   -7.5593 H   0  0  0  0  0  0  0  0  0  0  0  0
   -4.8906    8.7807   -8.4969 H   0  0  0  0  0  0  0  0  0  0  0  0
   -2.6603    9.7509   -8.0557 H   0  0  0  0  0  0  0  0  0  0  0  0
   -4.5083   13.2849   -6.4758 H   0  0  0  0  0  0  0  0  0  0  0  0
   -6.7358   12.3089   -6.9000 H   0  0  0  0  0  0  0  0  0  0  0  0
   -2.4624   14.1888   -6.1268 H   0  0  0  0  0  0  0  0  0  0  0  0
   -0.6455   10.6216   -7.6310 H   0  0  0  0  0  0  0  0  0  0  0  0
    1.4531   14.3351   -6.0101 H   0  0  0  0  0  0  0  0  0  0  0  0
    0.1793   15.4930   -6.5230 H   0  0  0  0  0  0  0  0  0  0  0  0
    0.1513   14.8037   -4.8645 H   0  0  0  0  0  0  0  0  0  0  0  0
   -4.0045   12.5193   -9.7802 H   0  0  0  0  0  0  0  0  0  0  0  0
   -3.9276   11.6290  -11.3384 H   0  0  0  0  0  0  0  0  0  0  0  0
   -1.6452   12.5495  -10.0949 H   0  0  0  0  0  0  0  0  0  0  0  0
   -2.1318   14.8321   -9.9082 H   0  0  0  0  0  0  0  0  0  0  0  0
   -1.3293   14.8517  -11.5151 H   0  0  0  0  0  0  0  0  0  0  0  0
   -3.3493   15.2019  -12.6464 H   0  0  0  0  0  0  0  0  0  0  0  0
   -3.9607   15.7439  -11.0467 H   0  0  0  0  0  0  0  0  0  0  0  0
   -0.7305   12.6738  -12.2410 H   0  0  0  0  0  0  0  0  0  0  0  0
  1  2  2  0  0  0  0
  1  4  1  0  0  0  0
  1 12  1  0  0  0  0
  2  6  1  0  0  0  0
  3  4  2  0  0  0  0
  3  5  1  0  0  0  0
  5  6  2  0  0  0  0
  5  9  1  0  0  0  0
  6  7  1  0  0  0  0
  7  8  1  0  0  0  0
  7 10  1  0  0  0  0
  8  9  2  0  0  0  0
 10 14  1  0  0  0  0
 11 12  1  0  0  0  0
 11 26  1  0  0  0  0
 11 29  1  0  0  0  0
 12 13  2  0  0  0  0
 14 15  2  0  0  0  0
 14 19  1  0  0  0  0
 15 16  1  0  0  0  0
 16 17  2  0  0  0  0
 17 18  1  0  0  0  0
 17 20  1  0  0  0  0
 18 19  2  0  0  0  0
 20 21  2  0  0  0  0
 20 24  1  0  0  0  0
 21 22  1  0  0  0  0
 22 23  1  0  0  0  0
 22 25  1  0  0  0  0
 23 24  2  0  0  0  0
 26 27  1  0  0  0  0
 27 28  1  0  0  0  0
 27 30  1  0  0  0  0
 28 29  1  0  0  0  0
  2 31  1  0  0  0  0
  3 32  1  0  0  0  0
  4 33  1  0  0  0  0
  7 34  1  0  0  0  0
 10 35  1  0  0  0  0
 10 36  1  0  0  0  0
 15 37  1  0  0  0  0
 16 38  1  0  0  0  0
 18 39  1  0  0  0  0
 19 40  1  0  0  0  0
 21 41  1  0  0  0  0
 24 42  1  0  0  0  0
 25 43  1  0  0  0  0
 25 44  1  0  0  0  0
 25 45  1  0  0  0  0
 26 46  1  0  0  0  0
 26 47  1  0  0  0  0
 27 48  1  0  0  0  0
 28 49  1  0  0  0  0
 28 50  1  0  0  0  0
 29 51  1  0  0  0  0
 29 52  1  0  0  0  0
 30 53  1  0  0  0  0
M  END
> <Name>
30

> <IC50[uM]>
0.003

$$$$
30
  -OEChem-05192314333D
 Structure written by MMmdl.
 53 57  0     1  0  0  0  0  0999 V2000
   -6.3720   12.3564  -12.0094 C   0  0  0  0  0  0  0  0  0  0  0  0
   -6.5328   11.8103  -10.7336 C   0  0  0  0  0  0  0  0  0  0  0  0
   -7.7318   10.5755  -13.0290 C   0  0  0  0  0  0  0  0  0  0  0  0
   -6.9898   11.7633  -13.1279 C   0  0  0  0  0  0  0  0  0  0  0  0
   -7.8210   10.0065  -11.7558 C   0  0  0  0  0  0  0  0  0  0  0  0
   -7.2477   10.6184  -10.6026 C   0  0  0  0  0  0  0  0  0  0  0  0
   -7.6140    9.7458   -9.5136 C   0  0  0  0  0  0  0  0  0  0  0  0
   -8.2690    8.7218   -9.9879 N   0  0  0  0  0  0  0  0  0  0  0  0
   -8.4092    8.8538  -11.2990 N   0  0  0  0  0  0  0  0  0  0  0  0
   -7.3381    9.8926   -8.0280 C   0  0  0  0  0  0  0  0  0  0  0  0
   -4.3458   13.7121  -11.5140 N   0  0  0  0  0  0  0  0  0  0  0  0
   -5.5478   13.6364  -12.1864 C   0  0  0  0  0  0  0  0  0  0  0  0
   -5.9572   14.5395  -12.9136 O   0  0  0  0  0  0  0  0  0  0  0  0
   -5.9581   10.4851   -7.7363 C   0  0  0  0  0  0  0  0  0  0  0  0
   -4.8068    9.7633   -8.0566 C   0  0  0  0  0  0  0  0  0  0  0  0
   -3.5506   10.3101   -7.8085 C   0  0  0  0  0  0  0  0  0  0  0  0
   -3.4405   11.5856   -7.2383 C   0  0  0  0  0  0  0  0  0  0  0  0
   -4.5911   12.3019   -6.9155 C   0  0  0  0  0  0  0  0  0  0  0  0
   -5.8461   11.7538   -7.1583 C   0  0  0  0  0  0  0  0  0  0  0  0
   -2.0993   12.1777   -6.9729 C   0  0  0  0  0  0  0  0  0  0  0  0
   -1.7708   13.4214   -6.4416 C   0  0  0  0  0  0  0  0  0  0  0  0
   -0.4313   13.4856   -6.3949 N   0  0  0  0  0  0  0  0  0  0  0  0
    0.1723   12.4145   -6.8299 N   0  0  0  0  0  0  0  0  0  0  0  0
   -0.8042   11.6008   -7.2039 C   0  0  0  0  0  0  0  0  0  0  0  0
    0.3889   14.5981   -5.9187 C   0  0  0  0  0  0  0  0  0  0  0  0
   -3.6987   12.5799  -10.8351 C   0  0  0  0  0  0  0  0  0  0  0  0
   -2.1930   12.9387  -10.9658 C   0  0  2  0  0  0  0  0  0  0  0  0
   -2.1862   14.4653  -10.9438 C   0  0  0  0  0  0  0  0  0  0  0  0
   -3.5086   14.9068  -11.5988 C   0  0  0  0  0  0  0  0  0  0  0  0
   -1.6500   12.4417  -12.1854 O   0  0  0  0  0  0  0  0  0  0  0  0
   -6.1130   12.2997   -9.8672 H   0  0  0  0  0  0  0  0  0  0  0  0
   -8.2070   10.1267  -13.8888 H   0  0  0  0  0  0  0  0  0  0  0  0
   -6.8894   12.2377  -14.0929 H   0  0  0  0  0  0  0  0  0  0  0  0
   -7.7632    7.8822   -9.7899 H   0  0  0  0  0  0  0  0  0  0  0  0
   -9.3841    8.8770  -11.5205 H   0  0  0  0  0  0  0  0  0  0  0  0
   -8.0412    9.6089   -7.2589 H   0  0  0  0  0  0  0  0  0  0  0  0
   -4.8906    8.7807   -8.4969 H   0  0  0  0  0  0  0  0  0  0  0  0
   -2.6603    9.7509   -8.0557 H   0  0  0  0  0  0  0  0  0  0  0  0
   -4.5083   13.2849   -6.4758 H   0  0  0  0  0  0  0  0  0  0  0  0
   -6.7358   12.3089   -6.9000 H   0  0  0  0  0  0  0  0  0  0  0  0
   -2.4624   14.1888   -6.1268 H   0  0  0  0  0  0  0  0  0  0  0  0
   -0.6455   10.6216   -7.6310 H   0  0  0  0  0  0  0  0  0  0  0  0
    1.4531   14.3351   -6.0101 H   0  0  0  0  0  0  0  0  0  0  0  0
    0.1793   15.4930   -6.5230 H   0  0  0  0  0  0  0  0  0  0  0  0
    0.1513   14.8037   -4.8645 H   0  0  0  0  0  0  0  0  0  0  0  0
   -4.0045   12.5193   -9.7802 H   0  0  0  0  0  0  0  0  0  0  0  0
   -3.9276   11.6290  -11.3384 H   0  0  0  0  0  0  0  0  0  0  0  0
   -1.6452   12.5495  -10.0949 H   0  0  0  0  0  0  0  0  0  0  0  0
   -2.1318   14.8321   -9.9082 H   0  0  0  0  0  0  0  0  0  0  0  0
   -1.3293   14.8517  -11.5151 H   0  0  0  0  0  0  0  0  0  0  0  0
   -3.3493   15.2019  -12.6464 H   0  0  0  0  0  0  0  0  0  0  0  0
   -3.9607   15.7439  -11.0467 H   0  0  0  0  0  0  0  0  0  0  0  0
   -0.7305   12.6738  -12.2410 H   0  0  0  0  0  0  0  0  0  0  0  0
  1  2  2  0  0  0  0
  1  4  1  0  0  0  0
  1 12  1  0  0  0  0
  2  6  1  0  0  0  0
  3  4  2  0  0  0  0
  3  5  1  0  0  0  0
  5  6  2  0  0  0  0
  5  9  1  0  0  0  0
  6  7  1  0  0  0  0
  7  8  1  0  0  0  0
  7 10  2  0  0  0  0
  8  9  1  0  0  0  0
 10 14  1  0  0  0  0
 11 12  1  0  0  0  0
 11 26  1  0  0  0  0
 11 29  1  0  0  0  0
 12 13  2  0  0  0  0
 14 15  2  0  0  0  0
 14 19  1  0  0  0  0
 15 16  1  0  0  0  0
 16 17  2  0  0  0  0
 17 18  1  0  0  0  0
 17 20  1  0  0  0  0
 18 19  2  0  0  0  0
 20 21  2  0  0  0  0
 20 24  1  0  0  0  0
 21 22  1  0  0  0  0
 22 23  1  0  0  0  0
 22 25  1  0  0  0  0
 23 24  2  0  0  0  0
 26 27  1  0  0  0  0
 27 28  1  0  0  0  0
 27 30  1  0  0  0  0
 28 29  1  0  0  0  0
  2 31  1  0  0  0  0
  3 32  1  0  0  0  0
  4 33  1  0  0  0  0
  8 34  1  0  0  0  0
  9 35  1  0  0  0  0
 10 36  1  0  0  0  0
 15 37  1  0  0  0  0
 16 38  1  0  0  0  0
 18 39  1  0  0  0  0
 19 40  1  0  0  0  0
 21 41  1  0  0  0  0
 24 42  1  0  0  0  0
 25 43  1  0  0  0  0
 25 44  1  0  0  0  0
 25 45  1  0  0  0  0
 26 46  1  0  0  0  0
 26 47  1  0  0  0  0
 27 48  1  0  0  0  0
 28 49  1  0  0  0  0
 28 50  1  0  0  0  0
 29 51  1  0  0  0  0
 29 52  1  0  0  0  0
 30 53  1  0  0  0  0
M  END
> <Name>
30

> <IC50[uM]>
0.003

$$$$
30
  -OEChem-05192314333D
 Structure written by MMmdl.
 53 57  0     1  0  0  0  0  0999 V2000
   -6.3720   12.3564  -12.0094 C   0  0  0  0  0  0  0  0  0  0  0  0
   -6.5328   11.8103  -10.7336 C   0  0  0  0  0  0  0  0  0  0  0  0
   -7.7318   10.5755  -13.0290 C   0  0  0  0  0  0  0  0  0  0  0  0
   -6.9898   11.7633  -13.1279 C   0  0  0  0  0  0  0  0  0  0  0  0
   -7.8210   10.0065  -11.7558 C   0  0  0  0  0  0  0  0  0  0  0  0
   -7.2477   10.6184  -10.6026 C   0  0  0  0  0  0  0  0  0  0  0  0
   -7.6140    9.7458   -9.5136 C   0  0  0  0  0  0  0  0  0  0  0  0
   -8.2690    8.7218   -9.9879 N   0  0  0  0  0  0  0  0  0  0  0  0
   -8.4092    8.8538  -11.2990 N   0  0  0  0  0  0  0  0  0  0  0  0
   -7.3381    9.8926   -8.0280 C   0  0  0  0  0  0  0  0  0  0  0  0
   -4.3458   13.7121  -11.5140 N   0  0  0  0  0  0  0  0  0  0  0  0
   -5.5478   13.6364  -12.1864 C   0  0  0  0  0  0  0  0  0  0  0  0
   -5.9572   14.5395  -12.9136 O   0  0  0  0  0  0  0  0  0  0  0  0
   -5.9581   10.4851   -7.7363 C   0  0  0  0  0  0  0  0  0  0  0  0
   -4.8068    9.7633   -8.0566 C   0  0  0  0  0  0  0  0  0  0  0  0
   -3.5506   10.3101   -7.8085 C   0  0  0  0  0  0  0  0  0  0  0  0
   -3.4405   11.5856   -7.2383 C   0  0  0  0  0  0  0  0  0  0  0  0
   -4.5911   12.3019   -6.9155 C   0  0  0  0  0  0  0  0  0  0  0  0
   -5.8461   11.7538   -7.1583 C   0  0  0  0  0  0  0  0  0  0  0  0
   -2.0993   12.1777   -6.9729 C   0  0  0  0  0  0  0  0  0  0  0  0
   -1.7708   13.4214   -6.4416 C   0  0  0  0  0  0  0  0  0  0  0  0
   -0.4313   13.4856   -6.3949 N   0  0  0  0  0  0  0  0  0  0  0  0
    0.1723   12.4145   -6.8299 N   0  0  0  0  0  0  0  0  0  0  0  0
   -0.8042   11.6008   -7.2039 C   0  0  0  0  0  0  0  0  0  0  0  0
    0.3889   14.5981   -5.9187 C   0  0  0  0  0  0  0  0  0  0  0  0
   -3.6987   12.5799  -10.8351 C   0  0  0  0  0  0  0  0  0  0  0  0
   -2.1930   12.9387  -10.9658 C   0  0  2  0  0  0  0  0  0  0  0  0
   -2.1862   14.4653  -10.9438 C   0  0  0  0  0  0  0  0  0  0  0  0
   -3.5086   14.9068  -11.5988 C   0  0  0  0  0  0  0  0  0  0  0  0
   -1.6500   12.4417  -12.1854 O   0  0  0  0  0  0  0  0  0  0  0  0
   -5.4723   11.7440  -12.1691 H   0  0  0  0  0  0  0  0  0  0  0  0
   -6.1130   12.2997   -9.8672 H   0  0  0  0  0  0  0  0  0  0  0  0
   -8.2070   10.1267  -13.8888 H   0  0  0  0  0  0  0  0  0  0  0  0
   -6.8894   12.2377  -14.0929 H   0  0  0  0  0  0  0  0  0  0  0  0
   -8.6124    7.9552   -9.4454 H   0  0  0  0  0  0  0  0  0  0  0  0
   -8.0412    9.6089   -7.2589 H   0  0  0  0  0  0  0  0  0  0  0  0
   -4.8906    8.7807   -8.4969 H   0  0  0  0  0  0  0  0  0  0  0  0
   -2.6603    9.7509   -8.0557 H   0  0  0  0  0  0  0  0  0  0  0  0
   -4.5083   13.2849   -6.4758 H   0  0  0  0  0  0  0  0  0  0  0  0
   -6.7358   12.3089   -6.9000 H   0  0  0  0  0  0  0  0  0  0  0  0
   -2.4624   14.1888   -6.1268 H   0  0  0  0  0  0  0  0  0  0  0  0
   -0.6455   10.6216   -7.6310 H   0  0  0  0  0  0  0  0  0  0  0  0
    1.4531   14.3351   -6.0101 H   0  0  0  0  0  0  0  0  0  0  0  0
    0.1793   15.4930   -6.5230 H   0  0  0  0  0  0  0  0  0  0  0  0
    0.1513   14.8037   -4.8645 H   0  0  0  0  0  0  0  0  0  0  0  0
   -4.0045   12.5193   -9.7802 H   0  0  0  0  0  0  0  0  0  0  0  0
   -3.9276   11.6290  -11.3384 H   0  0  0  0  0  0  0  0  0  0  0  0
   -1.6452   12.5495  -10.0949 H   0  0  0  0  0  0  0  0  0  0  0  0
   -2.1318   14.8321   -9.9082 H   0  0  0  0  0  0  0  0  0  0  0  0
   -1.3293   14.8517  -11.5151 H   0  0  0  0  0  0  0  0  0  0  0  0
   -3.3493   15.2019  -12.6464 H   0  0  0  0  0  0  0  0  0  0  0  0
   -3.9607   15.7439  -11.0467 H   0  0  0  0  0  0  0  0  0  0  0  0
   -0.7305   12.6738  -12.2410 H   0  0  0  0  0  0  0  0  0  0  0  0
  1  2  1  0  0  0  0
  1  4  1  0  0  0  0
  1 12  1  0  0  0  0
  2  6  2  0  0  0  0
  3  4  2  0  0  0  0
  3  5  1  0  0  0  0
  5  6  1  0  0  0  0
  5  9  2  0  0  0  0
  6  7  1  0  0  0  0
  7  8  1  0  0  0  0
  7 10  2  0  0  0  0
  8  9  1  0  0  0  0
 10 14  1  0  0  0  0
 11 12  1  0  0  0  0
 11 26  1  0  0  0  0
 11 29  1  0  0  0  0
 12 13  2  0  0  0  0
 14 15  2  0  0  0  0
 14 19  1  0  0  0  0
 15 16  1  0  0  0  0
 16 17  2  0  0  0  0
 17 18  1  0  0  0  0
 17 20  1  0  0  0  0
 18 19  2  0  0  0  0
 20 21  2  0  0  0  0
 20 24  1  0  0  0  0
 21 22  1  0  0  0  0
 22 23  1  0  0  0  0
 22 25  1  0  0  0  0
 23 24  2  0  0  0  0
 26 27  1  0  0  0  0
 27 28  1  0  0  0  0
 27 30  1  0  0  0  0
 28 29  1  0  0  0  0
  1 31  1  0  0  0  0
  2 32  1  0  0  0  0
  3 33  1  0  0  0  0
  4 34  1  0  0  0  0
  8 35  1  0  0  0  0
 10 36  1  0  0  0  0
 15 37  1  0  0  0  0
 16 38  1  0  0  0  0
 18 39  1  0  0  0  0
 19 40  1  0  0  0  0
 21 41  1  0  0  0  0
 24 42  1  0  0  0  0
 25 43  1  0  0  0  0
 25 44  1  0  0  0  0
 25 45  1  0  0  0  0
 26 46  1  0  0  0  0
 26 47  1  0  0  0  0
 27 48  1  0  0  0  0
 28 49  1  0  0  0  0
 28 50  1  0  0  0  0
 29 51  1  0  0  0  0
 29 52  1  0  0  0  0
 30 53  1  0  0  0  0
M  END
> <Name>
30

> <IC50[uM]>
0.003

$$$$
30
  -OEChem-05192314333D
 Structure written by MMmdl.
 53 57  0     1  0  0  0  0  0999 V2000
   -6.3720   12.3564  -12.0094 C   0  0  0  0  0  0  0  0  0  0  0  0
   -6.5328   11.8103  -10.7336 C   0  0  0  0  0  0  0  0  0  0  0  0
   -7.7318   10.5755  -13.0290 C   0  0  0  0  0  0  0  0  0  0  0  0
   -6.9898   11.7633  -13.1279 C   0  0  0  0  0  0  0  0  0  0  0  0
   -7.8210   10.0065  -11.7558 C   0  0  0  0  0  0  0  0  0  0  0  0
   -7.2477   10.6184  -10.6026 C   0  0  0  0  0  0  0  0  0  0  0  0
   -7.6140    9.7458   -9.5136 C   0  0  0  0  0  0  0  0  0  0  0  0
   -8.2690    8.7218   -9.9879 N   0  0  0  0  0  0  0  0  0  0  0  0
   -8.4092    8.8538  -11.2990 N   0  0  0  0  0  0  0  0  0  0  0  0
   -7.3381    9.8926   -8.0280 C   0  0  0  0  0  0  0  0  0  0  0  0
   -4.3458   13.7121  -11.5140 N   0  0  0  0  0  0  0  0  0  0  0  0
   -5.5478   13.6364  -12.1864 C   0  0  0  0  0  0  0  0  0  0  0  0
   -5.9572   14.5395  -12.9136 O   0  0  0  0  0  0  0  0  0  0  0  0
   -5.9581   10.4851   -7.7363 C   0  0  0  0  0  0  0  0  0  0  0  0
   -4.8068    9.7633   -8.0566 C   0  0  0  0  0  0  0  0  0  0  0  0
   -3.5506   10.3101   -7.8085 C   0  0  0  0  0  0  0  0  0  0  0  0
   -3.4405   11.5856   -7.2383 C   0  0  0  0  0  0  0  0  0  0  0  0
   -4.5911   12.3019   -6.9155 C   0  0  0  0  0  0  0  0  0  0  0  0
   -5.8461   11.7538   -7.1583 C   0  0  0  0  0  0  0  0  0  0  0  0
   -2.0993   12.1777   -6.9729 C   0  0  0  0  0  0  0  0  0  0  0  0
   -1.7708   13.4214   -6.4416 C   0  0  0  0  0  0  0  0  0  0  0  0
   -0.4313   13.4856   -6.3949 N   0  0  0  0  0  0  0  0  0  0  0  0
    0.1723   12.4145   -6.8299 N   0  0  0  0  0  0  0  0  0  0  0  0
   -0.8042   11.6008   -7.2039 C   0  0  0  0  0  0  0  0  0  0  0  0
    0.3889   14.5981   -5.9187 C   0  0  0  0  0  0  0  0  0  0  0  0
   -3.6987   12.5799  -10.8351 C   0  0  0  0  0  0  0  0  0  0  0  0
   -2.1930   12.9387  -10.9658 C   0  0  2  0  0  0  0  0  0  0  0  0
   -2.1862   14.4653  -10.9438 C   0  0  0  0  0  0  0  0  0  0  0  0
   -3.5086   14.9068  -11.5988 C   0  0  0  0  0  0  0  0  0  0  0  0
   -1.6500   12.4417  -12.1854 O   0  0  0  0  0  0  0  0  0  0  0  0
   -6.1130   12.2997   -9.8672 H   0  0  0  0  0  0  0  0  0  0  0  0
   -8.7545   10.7893  -13.3731 H   0  0  0  0  0  0  0  0  0  0  0  0
   -7.2680    9.8339  -13.6960 H   0  0  0  0  0  0  0  0  0  0  0  0
   -6.8894   12.2377  -14.0929 H   0  0  0  0  0  0  0  0  0  0  0  0
   -8.6124    7.9552   -9.4454 H   0  0  0  0  0  0  0  0  0  0  0  0
   -8.0412    9.6089   -7.2589 H   0  0  0  0  0  0  0  0  0  0  0  0
   -4.8906    8.7807   -8.4969 H   0  0  0  0  0  0  0  0  0  0  0  0
   -2.6603    9.7509   -8.0557 H   0  0  0  0  0  0  0  0  0  0  0  0
   -4.5083   13.2849   -6.4758 H   0  0  0  0  0  0  0  0  0  0  0  0
   -6.7358   12.3089   -6.9000 H   0  0  0  0  0  0  0  0  0  0  0  0
   -2.4624   14.1888   -6.1268 H   0  0  0  0  0  0  0  0  0  0  0  0
   -0.6455   10.6216   -7.6310 H   0  0  0  0  0  0  0  0  0  0  0  0
    1.4531   14.3351   -6.0101 H   0  0  0  0  0  0  0  0  0  0  0  0
    0.1793   15.4930   -6.5230 H   0  0  0  0  0  0  0  0  0  0  0  0
    0.1513   14.8037   -4.8645 H   0  0  0  0  0  0  0  0  0  0  0  0
   -4.0045   12.5193   -9.7802 H   0  0  0  0  0  0  0  0  0  0  0  0
   -3.9276   11.6290  -11.3384 H   0  0  0  0  0  0  0  0  0  0  0  0
   -1.6452   12.5495  -10.0949 H   0  0  0  0  0  0  0  0  0  0  0  0
   -2.1318   14.8321   -9.9082 H   0  0  0  0  0  0  0  0  0  0  0  0
   -1.3293   14.8517  -11.5151 H   0  0  0  0  0  0  0  0  0  0  0  0
   -3.3493   15.2019  -12.6464 H   0  0  0  0  0  0  0  0  0  0  0  0
   -3.9607   15.7439  -11.0467 H   0  0  0  0  0  0  0  0  0  0  0  0
   -0.7305   12.6738  -12.2410 H   0  0  0  0  0  0  0  0  0  0  0  0
  1  2  1  0  0  0  0
  1  4  2  0  0  0  0
  1 12  1  0  0  0  0
  2  6  2  0  0  0  0
  3  4  1  0  0  0  0
  3  5  1  0  0  0  0
  5  6  1  0  0  0  0
  5  9  2  0  0  0  0
  6  7  1  0  0  0  0
  7  8  1  0  0  0  0
  7 10  2  0  0  0  0
  8  9  1  0  0  0  0
 10 14  1  0  0  0  0
 11 12  1  0  0  0  0
 11 26  1  0  0  0  0
 11 29  1  0  0  0  0
 12 13  2  0  0  0  0
 14 15  2  0  0  0  0
 14 19  1  0  0  0  0
 15 16  1  0  0  0  0
 16 17  2  0  0  0  0
 17 18  1  0  0  0  0
 17 20  1  0  0  0  0
 18 19  2  0  0  0  0
 20 21  2  0  0  0  0
 20 24  1  0  0  0  0
 21 22  1  0  0  0  0
 22 23  1  0  0  0  0
 22 25  1  0  0  0  0
 23 24  2  0  0  0  0
 26 27  1  0  0  0  0
 27 28  1  0  0  0  0
 27 30  1  0  0  0  0
 28 29  1  0  0  0  0
  2 31  1  0  0  0  0
  3 32  1  0  0  0  0
  3 33  1  0  0  0  0
  4 34  1  0  0  0  0
  8 35  1  0  0  0  0
 10 36  1  0  0  0  0
 15 37  1  0  0  0  0
 16 38  1  0  0  0  0
 18 39  1  0  0  0  0
 19 40  1  0  0  0  0
 21 41  1  0  0  0  0
 24 42  1  0  0  0  0
 25 43  1  0  0  0  0
 25 44  1  0  0  0  0
 25 45  1  0  0  0  0
 26 46  1  0  0  0  0
 26 47  1  0  0  0  0
 27 48  1  0  0  0  0
 28 49  1  0  0  0  0
 28 50  1  0  0  0  0
 29 51  1  0  0  0  0
 29 52  1  0  0  0  0
 30 53  1  0  0  0  0
M  END
> <Name>
30

> <IC50[uM]>
0.003

$$$$
30
  -OEChem-05192314333D
 Structure written by MMmdl.
 53 57  0     1  0  0  0  0  0999 V2000
   -6.3720   12.3564  -12.0094 C   0  0  0  0  0  0  0  0  0  0  0  0
   -6.5328   11.8103  -10.7336 C   0  0  0  0  0  0  0  0  0  0  0  0
   -7.7318   10.5755  -13.0290 C   0  0  0  0  0  0  0  0  0  0  0  0
   -6.9898   11.7633  -13.1279 C   0  0  0  0  0  0  0  0  0  0  0  0
   -7.8210   10.0065  -11.7558 C   0  0  0  0  0  0  0  0  0  0  0  0
   -7.2477   10.6184  -10.6026 C   0  0  0  0  0  0  0  0  0  0  0  0
   -7.6140    9.7458   -9.5136 C   0  0  0  0  0  0  0  0  0  0  0  0
   -8.2690    8.7218   -9.9879 N   0  0  0  0  0  0  0  0  0  0  0  0
   -8.4092    8.8538  -11.2990 N   0  0  0  0  0  0  0  0  0  0  0  0
   -7.3381    9.8926   -8.0280 C   0  0  0  0  0  0  0  0  0  0  0  0
   -4.3458   13.7121  -11.5140 N   0  0  0  0  0  0  0  0  0  0  0  0
   -5.5478   13.6364  -12.1864 C   0  0  0  0  0  0  0  0  0  0  0  0
   -5.9572   14.5395  -12.9136 O   0  0  0  0  0  0  0  0  0  0  0  0
   -5.9581   10.4851   -7.7363 C   0  0  0  0  0  0  0  0  0  0  0  0
   -4.8068    9.7633   -8.0566 C   0  0  0  0  0  0  0  0  0  0  0  0
   -3.5506   10.3101   -7.8085 C   0  0  0  0  0  0  0  0  0  0  0  0
   -3.4405   11.5856   -7.2383 C   0  0  0  0  0  0  0  0  0  0  0  0
   -4.5911   12.3019   -6.9155 C   0  0  0  0  0  0  0  0  0  0  0  0
   -5.8461   11.7538   -7.1583 C   0  0  0  0  0  0  0  0  0  0  0  0
   -2.0993   12.1777   -6.9729 C   0  0  0  0  0  0  0  0  0  0  0  0
   -1.7708   13.4214   -6.4416 C   0  0  0  0  0  0  0  0  0  0  0  0
   -0.4313   13.4856   -6.3949 N   0  0  0  0  0  0  0  0  0  0  0  0
    0.1723   12.4145   -6.8299 N   0  0  0  0  0  0  0  0  0  0  0  0
   -0.8042   11.6008   -7.2039 C   0  0  0  0  0  0  0  0  0  0  0  0
    0.3889   14.5981   -5.9187 C   0  0  0  0  0  0  0  0  0  0  0  0
   -3.6987   12.5799  -10.8351 C   0  0  0  0  0  0  0  0  0  0  0  0
   -2.1930   12.9387  -10.9658 C   0  0  2  0  0  0  0  0  0  0  0  0
   -2.1862   14.4653  -10.9438 C   0  0  0  0  0  0  0  0  0  0  0  0
   -3.5086   14.9068  -11.5988 C   0  0  0  0  0  0  0  0  0  0  0  0
   -1.6500   12.4417  -12.1854 O   0  0  0  0  0  0  0  0  0  0  0  0
   -6.1130   12.2997   -9.8672 H   0  0  0  0  0  0  0  0  0  0  0  0
   -8.2070   10.1267  -13.8888 H   0  0  0  0  0  0  0  0  0  0  0  0
   -6.8894   12.2377  -14.0929 H   0  0  0  0  0  0  0  0  0  0  0  0
   -8.6124    7.9552   -9.4454 H   0  0  0  0  0  0  0  0  0  0  0  0
   -8.0412    9.6089   -7.2589 H   0  0  0  0  0  0  0  0  0  0  0  0
   -4.8906    8.7807   -8.4969 H   0  0  0  0  0  0  0  0  0  0  0  0
   -2.6603    9.7509   -8.0557 H   0  0  0  0  0  0  0  0  0  0  0  0
   -4.5083   13.2849   -6.4758 H   0  0  0  0  0  0  0  0  0  0  0  0
   -6.7358   12.3089   -6.9000 H   0  0  0  0  0  0  0  0  0  0  0  0
   -2.1654   14.2228   -7.0835 H   0  0  0  0  0  0  0  0  0  0  0  0
   -2.1896   13.5226   -5.4295 H   0  0  0  0  0  0  0  0  0  0  0  0
   -0.6455   10.6216   -7.6310 H   0  0  0  0  0  0  0  0  0  0  0  0
    1.4531   14.3351   -6.0101 H   0  0  0  0  0  0  0  0  0  0  0  0
    0.1793   15.4930   -6.5230 H   0  0  0  0  0  0  0  0  0  0  0  0
    0.1513   14.8037   -4.8645 H   0  0  0  0  0  0  0  0  0  0  0  0
   -4.0045   12.5193   -9.7802 H   0  0  0  0  0  0  0  0  0  0  0  0
   -3.9276   11.6290  -11.3384 H   0  0  0  0  0  0  0  0  0  0  0  0
   -1.6452   12.5495  -10.0949 H   0  0  0  0  0  0  0  0  0  0  0  0
   -2.1318   14.8321   -9.9082 H   0  0  0  0  0  0  0  0  0  0  0  0
   -1.3293   14.8517  -11.5151 H   0  0  0  0  0  0  0  0  0  0  0  0
   -3.3493   15.2019  -12.6464 H   0  0  0  0  0  0  0  0  0  0  0  0
   -3.9607   15.7439  -11.0467 H   0  0  0  0  0  0  0  0  0  0  0  0
   -0.7305   12.6738  -12.2410 H   0  0  0  0  0  0  0  0  0  0  0  0
  1  2  2  0  0  0  0
  1  4  1  0  0  0  0
  1 12  1  0  0  0  0
  2  6  1  0  0  0  0
  3  4  2  0  0  0  0
  3  5  1  0  0  0  0
  5  6  1  0  0  0  0
  5  9  2  0  0  0  0
  6  7  2  0  0  0  0
  7  8  1  0  0  0  0
  7 10  1  0  0  0  0
  8  9  1  0  0  0  0
 10 14  2  0  0  0  0
 11 12  1  0  0  0  0
 11 26  1  0  0  0  0
 11 29  1  0  0  0  0
 12 13  2  0  0  0  0
 14 15  1  0  0  0  0
 14 19  1  0  0  0  0
 15 16  2  0  0  0  0
 16 17  1  0  0  0  0
 17 18  1  0  0  0  0
 17 20  2  0  0  0  0
 18 19  2  0  0  0  0
 20 21  1  0  0  0  0
 20 24  1  0  0  0  0
 21 22  1  0  0  0  0
 22 23  1  0  0  0  0
 22 25  1  0  0  0  0
 23 24  2  0  0  0  0
 26 27  1  0  0  0  0
 27 28  1  0  0  0  0
 27 30  1  0  0  0  0
 28 29  1  0  0  0  0
  2 31  1  0  0  0  0
  3 32  1  0  0  0  0
  4 33  1  0  0  0  0
  8 34  1  0  0  0  0
 10 35  1  0  0  0  0
 15 36  1  0  0  0  0
 16 37  1  0  0  0  0
 18 38  1  0  0  0  0
 19 39  1  0  0  0  0
 21 40  1  0  0  0  0
 21 41  1  0  0  0  0
 24 42  1  0  0  0  0
 25 43  1  0  0  0  0
 25 44  1  0  0  0  0
 25 45  1  0  0  0  0
 26 46  1  0  0  0  0
 26 47  1  0  0  0  0
 27 48  1  0  0  0  0
 28 49  1  0  0  0  0
 28 50  1  0  0  0  0
 29 51  1  0  0  0  0
 29 52  1  0  0  0  0
 30 53  1  0  0  0  0
M  END
> <Name>
30

> <IC50[uM]>
0.003

$$$$
30
  -OEChem-05192314333D
 Structure written by MMmdl.
 53 57  0     1  0  0  0  0  0999 V2000
   -6.3720   12.3564  -12.0094 C   0  0  0  0  0  0  0  0  0  0  0  0
   -6.5328   11.8103  -10.7336 C   0  0  0  0  0  0  0  0  0  0  0  0
   -7.7318   10.5755  -13.0290 C   0  0  0  0  0  0  0  0  0  0  0  0
   -6.9898   11.7633  -13.1279 C   0  0  0  0  0  0  0  0  0  0  0  0
   -7.8210   10.0065  -11.7558 C   0  0  0  0  0  0  0  0  0  0  0  0
   -7.2477   10.6184  -10.6026 C   0  0  0  0  0  0  0  0  0  0  0  0
   -7.6140    9.7458   -9.5136 C   0  0  0  0  0  0  0  0  0  0  0  0
   -8.2690    8.7218   -9.9879 N   0  0  0  0  0  0  0  0  0  0  0  0
   -8.4092    8.8538  -11.2990 N   0  0  0  0  0  0  0  0  0  0  0  0
   -7.3381    9.8926   -8.0280 C   0  0  0  0  0  0  0  0  0  0  0  0
   -4.3458   13.7121  -11.5140 N   0  0  0  0  0  0  0  0  0  0  0  0
   -5.5478   13.6364  -12.1864 C   0  0  0  0  0  0  0  0  0  0  0  0
   -5.9572   14.5395  -12.9136 O   0  0  0  0  0  0  0  0  0  0  0  0
   -5.9581   10.4851   -7.7363 C   0  0  0  0  0  0  0  0  0  0  0  0
   -4.8068    9.7633   -8.0566 C   0  0  0  0  0  0  0  0  0  0  0  0
   -3.5506   10.3101   -7.8085 C   0  0  0  0  0  0  0  0  0  0  0  0
   -3.4405   11.5856   -7.2383 C   0  0  0  0  0  0  0  0  0  0  0  0
   -4.5911   12.3019   -6.9155 C   0  0  0  0  0  0  0  0  0  0  0  0
   -5.8461   11.7538   -7.1583 C   0  0  0  0  0  0  0  0  0  0  0  0
   -2.0993   12.1777   -6.9729 C   0  0  0  0  0  0  0  0  0  0  0  0
   -1.7708   13.4214   -6.4416 C   0  0  0  0  0  0  0  0  0  0  0  0
   -0.4313   13.4856   -6.3949 N   0  0  0  0  0  0  0  0  0  0  0  0
    0.1723   12.4145   -6.8299 N   0  0  0  0  0  0  0  0  0  0  0  0
   -0.8042   11.6008   -7.2039 C   0  0  0  0  0  0  0  0  0  0  0  0
    0.3889   14.5981   -5.9187 C   0  0  0  0  0  0  0  0  0  0  0  0
   -3.6987   12.5799  -10.8351 C   0  0  0  0  0  0  0  0  0  0  0  0
   -2.1930   12.9387  -10.9658 C   0  0  2  0  0  0  0  0  0  0  0  0
   -2.1862   14.4653  -10.9438 C   0  0  0  0  0  0  0  0  0  0  0  0
   -3.5086   14.9068  -11.5988 C   0  0  0  0  0  0  0  0  0  0  0  0
   -1.6500   12.4417  -12.1854 O   0  0  0  0  0  0  0  0  0  0  0  0
   -6.1130   12.2997   -9.8672 H   0  0  0  0  0  0  0  0  0  0  0  0
   -8.2070   10.1267  -13.8888 H   0  0  0  0  0  0  0  0  0  0  0  0
   -6.8894   12.2377  -14.0929 H   0  0  0  0  0  0  0  0  0  0  0  0
   -8.8844    8.1955  -11.8828 H   0  0  0  0  0  0  0  0  0  0  0  0
   -8.0412    9.6089   -7.2589 H   0  0  0  0  0  0  0  0  0  0  0  0
   -4.8906    8.7807   -8.4969 H   0  0  0  0  0  0  0  0  0  0  0  0
   -2.6603    9.7509   -8.0557 H   0  0  0  0  0  0  0  0  0  0  0  0
   -4.5083   13.2849   -6.4758 H   0  0  0  0  0  0  0  0  0  0  0  0
   -6.7358   12.3089   -6.9000 H   0  0  0  0  0  0  0  0  0  0  0  0
   -2.1654   14.2228   -7.0835 H   0  0  0  0  0  0  0  0  0  0  0  0
   -2.1896   13.5226   -5.4295 H   0  0  0  0  0  0  0  0  0  0  0  0
   -0.6455   10.6216   -7.6310 H   0  0  0  0  0  0  0  0  0  0  0  0
    1.4531   14.3351   -6.0101 H   0  0  0  0  0  0  0  0  0  0  0  0
    0.1793   15.4930   -6.5230 H   0  0  0  0  0  0  0  0  0  0  0  0
    0.1513   14.8037   -4.8645 H   0  0  0  0  0  0  0  0  0  0  0  0
   -4.0045   12.5193   -9.7802 H   0  0  0  0  0  0  0  0  0  0  0  0
   -3.9276   11.6290  -11.3384 H   0  0  0  0  0  0  0  0  0  0  0  0
   -1.6452   12.5495  -10.0949 H   0  0  0  0  0  0  0  0  0  0  0  0
   -2.1318   14.8321   -9.9082 H   0  0  0  0  0  0  0  0  0  0  0  0
   -1.3293   14.8517  -11.5151 H   0  0  0  0  0  0  0  0  0  0  0  0
   -3.3493   15.2019  -12.6464 H   0  0  0  0  0  0  0  0  0  0  0  0
   -3.9607   15.7439  -11.0467 H   0  0  0  0  0  0  0  0  0  0  0  0
   -0.7305   12.6738  -12.2410 H   0  0  0  0  0  0  0  0  0  0  0  0
  1  2  2  0  0  0  0
  1  4  1  0  0  0  0
  1 12  1  0  0  0  0
  2  6  1  0  0  0  0
  3  4  2  0  0  0  0
  3  5  1  0  0  0  0
  5  6  2  0  0  0  0
  5  9  1  0  0  0  0
  6  7  1  0  0  0  0
  7  8  2  0  0  0  0
  7 10  1  0  0  0  0
  8  9  1  0  0  0  0
 10 14  2  0  0  0  0
 11 12  1  0  0  0  0
 11 26  1  0  0  0  0
 11 29  1  0  0  0  0
 12 13  2  0  0  0  0
 14 15  1  0  0  0  0
 14 19  1  0  0  0  0
 15 16  2  0  0  0  0
 16 17  1  0  0  0  0
 17 18  1  0  0  0  0
 17 20  2  0  0  0  0
 18 19  2  0  0  0  0
 20 21  1  0  0  0  0
 20 24  1  0  0  0  0
 21 22  1  0  0  0  0
 22 23  1  0  0  0  0
 22 25  1  0  0  0  0
 23 24  2  0  0  0  0
 26 27  1  0  0  0  0
 27 28  1  0  0  0  0
 27 30  1  0  0  0  0
 28 29  1  0  0  0  0
  2 31  1  0  0  0  0
  3 32  1  0  0  0  0
  4 33  1  0  0  0  0
  9 34  1  0  0  0  0
 10 35  1  0  0  0  0
 15 36  1  0  0  0  0
 16 37  1  0  0  0  0
 18 38  1  0  0  0  0
 19 39  1  0  0  0  0
 21 40  1  0  0  0  0
 21 41  1  0  0  0  0
 24 42  1  0  0  0  0
 25 43  1  0  0  0  0
 25 44  1  0  0  0  0
 25 45  1  0  0  0  0
 26 46  1  0  0  0  0
 26 47  1  0  0  0  0
 27 48  1  0  0  0  0
 28 49  1  0  0  0  0
 28 50  1  0  0  0  0
 29 51  1  0  0  0  0
 29 52  1  0  0  0  0
 30 53  1  0  0  0  0
M  END
> <Name>
30

> <IC50[uM]>
0.003

$$$$
30
  -OEChem-05192314333D
 Structure written by MMmdl.
 53 57  0     1  0  0  0  0  0999 V2000
   -6.3720   12.3564  -12.0094 C   0  0  0  0  0  0  0  0  0  0  0  0
   -6.5328   11.8103  -10.7336 C   0  0  0  0  0  0  0  0  0  0  0  0
   -7.7318   10.5755  -13.0290 C   0  0  0  0  0  0  0  0  0  0  0  0
   -6.9898   11.7633  -13.1279 C   0  0  0  0  0  0  0  0  0  0  0  0
   -7.8210   10.0065  -11.7558 C   0  0  0  0  0  0  0  0  0  0  0  0
   -7.2477   10.6184  -10.6026 C   0  0  0  0  0  0  0  0  0  0  0  0
   -7.6140    9.7458   -9.5136 C   0  0  0  0  0  0  0  0  0  0  0  0
   -8.2690    8.7218   -9.9879 N   0  0  0  0  0  0  0  0  0  0  0  0
   -8.4092    8.8538  -11.2990 N   0  0  0  0  0  0  0  0  0  0  0  0
   -7.3381    9.8926   -8.0280 C   0  0  0  0  0  0  0  0  0  0  0  0
   -4.3458   13.7121  -11.5140 N   0  0  0  0  0  0  0  0  0  0  0  0
   -5.5478   13.6364  -12.1864 C   0  0  0  0  0  0  0  0  0  0  0  0
   -5.9572   14.5395  -12.9136 O   0  0  0  0  0  0  0  0  0  0  0  0
   -5.9581   10.4851   -7.7363 C   0  0  0  0  0  0  0  0  0  0  0  0
   -4.8068    9.7633   -8.0566 C   0  0  0  0  0  0  0  0  0  0  0  0
   -3.5506   10.3101   -7.8085 C   0  0  0  0  0  0  0  0  0  0  0  0
   -3.4405   11.5856   -7.2383 C   0  0  0  0  0  0  0  0  0  0  0  0
   -4.5911   12.3019   -6.9155 C   0  0  0  0  0  0  0  0  0  0  0  0
   -5.8461   11.7538   -7.1583 C   0  0  0  0  0  0  0  0  0  0  0  0
   -2.0993   12.1777   -6.9729 C   0  0  0  0  0  0  0  0  0  0  0  0
   -1.7708   13.4214   -6.4416 C   0  0  0  0  0  0  0  0  0  0  0  0
   -0.4313   13.4856   -6.3949 N   0  0  0  0  0  0  0  0  0  0  0  0
    0.1723   12.4145   -6.8299 N   0  0  0  0  0  0  0  0  0  0  0  0
   -0.8042   11.6008   -7.2039 C   0  0  0  0  0  0  0  0  0  0  0  0
    0.3889   14.5981   -5.9187 C   0  0  0  0  0  0  0  0  0  0  0  0
   -3.6987   12.5799  -10.8351 C   0  0  0  0  0  0  0  0  0  0  0  0
   -2.1930   12.9387  -10.9658 C   0  0  2  0  0  0  0  0  0  0  0  0
   -2.1862   14.4653  -10.9438 C   0  0  0  0  0  0  0  0  0  0  0  0
   -3.5086   14.9068  -11.5988 C   0  0  0  0  0  0  0  0  0  0  0  0
   -1.6500   12.4417  -12.1854 O   0  0  0  0  0  0  0  0  0  0  0  0
   -6.1130   12.2997   -9.8672 H   0  0  0  0  0  0  0  0  0  0  0  0
   -8.2070   10.1267  -13.8888 H   0  0  0  0  0  0  0  0  0  0  0  0
   -6.8894   12.2377  -14.0929 H   0  0  0  0  0  0  0  0  0  0  0  0
   -8.6124    7.9552   -9.4454 H   0  0  0  0  0  0  0  0  0  0  0  0
   -8.0412    9.6089   -7.2589 H   0  0  0  0  0  0  0  0  0  0  0  0
   -4.8906    8.7807   -8.4969 H   0  0  0  0  0  0  0  0  0  0  0  0
   -2.6603    9.7509   -8.0557 H   0  0  0  0  0  0  0  0  0  0  0  0
   -3.4412   12.0353   -8.2422 H   0  0  0  0  0  0  0  0  0  0  0  0
   -4.5083   13.2849   -6.4758 H   0  0  0  0  0  0  0  0  0  0  0  0
   -6.7358   12.3089   -6.9000 H   0  0  0  0  0  0  0  0  0  0  0  0
   -2.4624   14.1888   -6.1268 H   0  0  0  0  0  0  0  0  0  0  0  0
   -0.6455   10.6216   -7.6310 H   0  0  0  0  0  0  0  0  0  0  0  0
    1.4531   14.3351   -6.0101 H   0  0  0  0  0  0  0  0  0  0  0  0
    0.1793   15.4930   -6.5230 H   0  0  0  0  0  0  0  0  0  0  0  0
    0.1513   14.8037   -4.8645 H   0  0  0  0  0  0  0  0  0  0  0  0
   -4.0045   12.5193   -9.7802 H   0  0  0  0  0  0  0  0  0  0  0  0
   -3.9276   11.6290  -11.3384 H   0  0  0  0  0  0  0  0  0  0  0  0
   -1.6452   12.5495  -10.0949 H   0  0  0  0  0  0  0  0  0  0  0  0
   -2.1318   14.8321   -9.9082 H   0  0  0  0  0  0  0  0  0  0  0  0
   -1.3293   14.8517  -11.5151 H   0  0  0  0  0  0  0  0  0  0  0  0
   -3.3493   15.2019  -12.6464 H   0  0  0  0  0  0  0  0  0  0  0  0
   -3.9607   15.7439  -11.0467 H   0  0  0  0  0  0  0  0  0  0  0  0
   -0.7305   12.6738  -12.2410 H   0  0  0  0  0  0  0  0  0  0  0  0
  1  2  2  0  0  0  0
  1  4  1  0  0  0  0
  1 12  1  0  0  0  0
  2  6  1  0  0  0  0
  3  4  2  0  0  0  0
  3  5  1  0  0  0  0
  5  6  1  0  0  0  0
  5  9  2  0  0  0  0
  6  7  2  0  0  0  0
  7  8  1  0  0  0  0
  7 10  1  0  0  0  0
  8  9  1  0  0  0  0
 10 14  2  0  0  0  0
 11 12  1  0  0  0  0
 11 26  1  0  0  0  0
 11 29  1  0  0  0  0
 12 13  2  0  0  0  0
 14 15  1  0  0  0  0
 14 19  1  0  0  0  0
 15 16  2  0  0  0  0
 16 17  1  0  0  0  0
 17 18  1  0  0  0  0
 17 20  1  0  0  0  0
 18 19  2  0  0  0  0
 20 21  2  0  0  0  0
 20 24  1  0  0  0  0
 21 22  1  0  0  0  0
 22 23  1  0  0  0  0
 22 25  1  0  0  0  0
 23 24  2  0  0  0  0
 26 27  1  0  0  0  0
 27 28  1  0  0  0  0
 27 30  1  0  0  0  0
 28 29  1  0  0  0  0
  2 31  1  0  0  0  0
  3 32  1  0  0  0  0
  4 33  1  0  0  0  0
  8 34  1  0  0  0  0
 10 35  1  0  0  0  0
 15 36  1  0  0  0  0
 16 37  1  0  0  0  0
 17 38  1  0  0  0  0
 18 39  1  0  0  0  0
 19 40  1  0  0  0  0
 21 41  1  0  0  0  0
 24 42  1  0  0  0  0
 25 43  1  0  0  0  0
 25 44  1  0  0  0  0
 25 45  1  0  0  0  0
 26 46  1  0  0  0  0
 26 47  1  0  0  0  0
 27 48  1  0  0  0  0
 28 49  1  0  0  0  0
 28 50  1  0  0  0  0
 29 51  1  0  0  0  0
 29 52  1  0  0  0  0
 30 53  1  0  0  0  0
M  END
> <Name>
30

> <IC50[uM]>
0.003

$$$$
30
  -OEChem-05192314333D
 Structure written by MMmdl.
 53 57  0     1  0  0  0  0  0999 V2000
   -6.3720   12.3564  -12.0094 C   0  0  0  0  0  0  0  0  0  0  0  0
   -6.5328   11.8103  -10.7336 C   0  0  0  0  0  0  0  0  0  0  0  0
   -7.7318   10.5755  -13.0290 C   0  0  0  0  0  0  0  0  0  0  0  0
   -6.9898   11.7633  -13.1279 C   0  0  0  0  0  0  0  0  0  0  0  0
   -7.8210   10.0065  -11.7558 C   0  0  0  0  0  0  0  0  0  0  0  0
   -7.2477   10.6184  -10.6026 C   0  0  0  0  0  0  0  0  0  0  0  0
   -7.6140    9.7458   -9.5136 C   0  0  0  0  0  0  0  0  0  0  0  0
   -8.2690    8.7218   -9.9879 N   0  0  0  0  0  0  0  0  0  0  0  0
   -8.4092    8.8538  -11.2990 N   0  0  0  0  0  0  0  0  0  0  0  0
   -7.3381    9.8926   -8.0280 C   0  0  0  0  0  0  0  0  0  0  0  0
   -4.3458   13.7121  -11.5140 N   0  0  0  0  0  0  0  0  0  0  0  0
   -5.5478   13.6364  -12.1864 C   0  0  0  0  0  0  0  0  0  0  0  0
   -5.9572   14.5395  -12.9136 O   0  0  0  0  0  0  0  0  0  0  0  0
   -5.9581   10.4851   -7.7363 C   0  0  0  0  0  0  0  0  0  0  0  0
   -4.8068    9.7633   -8.0566 C   0  0  0  0  0  0  0  0  0  0  0  0
   -3.5506   10.3101   -7.8085 C   0  0  0  0  0  0  0  0  0  0  0  0
   -3.4405   11.5856   -7.2383 C   0  0  0  0  0  0  0  0  0  0  0  0
   -4.5911   12.3019   -6.9155 C   0  0  0  0  0  0  0  0  0  0  0  0
   -5.8461   11.7538   -7.1583 C   0  0  0  0  0  0  0  0  0  0  0  0
   -2.0993   12.1777   -6.9729 C   0  0  0  0  0  0  0  0  0  0  0  0
   -1.7708   13.4214   -6.4416 C   0  0  0  0  0  0  0  0  0  0  0  0
   -0.4313   13.4856   -6.3949 N   0  0  0  0  0  0  0  0  0  0  0  0
    0.1723   12.4145   -6.8299 N   0  0  0  0  0  0  0  0  0  0  0  0
   -0.8042   11.6008   -7.2039 C   0  0  0  0  0  0  0  0  0  0  0  0
    0.3889   14.5981   -5.9187 C   0  0  0  0  0  0  0  0  0  0  0  0
   -3.6987   12.5799  -10.8351 C   0  0  0  0  0  0  0  0  0  0  0  0
   -2.1930   12.9387  -10.9658 C   0  0  2  0  0  0  0  0  0  0  0  0
   -2.1862   14.4653  -10.9438 C   0  0  0  0  0  0  0  0  0  0  0  0
   -3.5086   14.9068  -11.5988 C   0  0  0  0  0  0  0  0  0  0  0  0
   -1.6500   12.4417  -12.1854 O   0  0  0  0  0  0  0  0  0  0  0  0
   -6.1130   12.2997   -9.8672 H   0  0  0  0  0  0  0  0  0  0  0  0
   -8.2070   10.1267  -13.8888 H   0  0  0  0  0  0  0  0  0  0  0  0
   -6.8894   12.2377  -14.0929 H   0  0  0  0  0  0  0  0  0  0  0  0
   -8.8844    8.1955  -11.8828 H   0  0  0  0  0  0  0  0  0  0  0  0
   -8.0412    9.6089   -7.2589 H   0  0  0  0  0  0  0  0  0  0  0  0
   -4.8906    8.7807   -8.4969 H   0  0  0  0  0  0  0  0  0  0  0  0
   -2.6603    9.7509   -8.0557 H   0  0  0  0  0  0  0  0  0  0  0  0
   -3.4412   12.0353   -8.2422 H   0  0  0  0  0  0  0  0  0  0  0  0
   -4.5083   13.2849   -6.4758 H   0  0  0  0  0  0  0  0  0  0  0  0
   -6.7358   12.3089   -6.9000 H   0  0  0  0  0  0  0  0  0  0  0  0
   -2.4624   14.1888   -6.1268 H   0  0  0  0  0  0  0  0  0  0  0  0
   -0.6455   10.6216   -7.6310 H   0  0  0  0  0  0  0  0  0  0  0  0
    1.4531   14.3351   -6.0101 H   0  0  0  0  0  0  0  0  0  0  0  0
    0.1793   15.4930   -6.5230 H   0  0  0  0  0  0  0  0  0  0  0  0
    0.1513   14.8037   -4.8645 H   0  0  0  0  0  0  0  0  0  0  0  0
   -4.0045   12.5193   -9.7802 H   0  0  0  0  0  0  0  0  0  0  0  0
   -3.9276   11.6290  -11.3384 H   0  0  0  0  0  0  0  0  0  0  0  0
   -1.6452   12.5495  -10.0949 H   0  0  0  0  0  0  0  0  0  0  0  0
   -2.1318   14.8321   -9.9082 H   0  0  0  0  0  0  0  0  0  0  0  0
   -1.3293   14.8517  -11.5151 H   0  0  0  0  0  0  0  0  0  0  0  0
   -3.3493   15.2019  -12.6464 H   0  0  0  0  0  0  0  0  0  0  0  0
   -3.9607   15.7439  -11.0467 H   0  0  0  0  0  0  0  0  0  0  0  0
   -0.7305   12.6738  -12.2410 H   0  0  0  0  0  0  0  0  0  0  0  0
  1  2  2  0  0  0  0
  1  4  1  0  0  0  0
  1 12  1  0  0  0  0
  2  6  1  0  0  0  0
  3  4  2  0  0  0  0
  3  5  1  0  0  0  0
  5  6  2  0  0  0  0
  5  9  1  0  0  0  0
  6  7  1  0  0  0  0
  7  8  2  0  0  0  0
  7 10  1  0  0  0  0
  8  9  1  0  0  0  0
 10 14  2  0  0  0  0
 11 12  1  0  0  0  0
 11 26  1  0  0  0  0
 11 29  1  0  0  0  0
 12 13  2  0  0  0  0
 14 15  1  0  0  0  0
 14 19  1  0  0  0  0
 15 16  2  0  0  0  0
 16 17  1  0  0  0  0
 17 18  1  0  0  0  0
 17 20  1  0  0  0  0
 18 19  2  0  0  0  0
 20 21  2  0  0  0  0
 20 24  1  0  0  0  0
 21 22  1  0  0  0  0
 22 23  1  0  0  0  0
 22 25  1  0  0  0  0
 23 24  2  0  0  0  0
 26 27  1  0  0  0  0
 27 28  1  0  0  0  0
 27 30  1  0  0  0  0
 28 29  1  0  0  0  0
  2 31  1  0  0  0  0
  3 32  1  0  0  0  0
  4 33  1  0  0  0  0
  9 34  1  0  0  0  0
 10 35  1  0  0  0  0
 15 36  1  0  0  0  0
 16 37  1  0  0  0  0
 17 38  1  0  0  0  0
 18 39  1  0  0  0  0
 19 40  1  0  0  0  0
 21 41  1  0  0  0  0
 24 42  1  0  0  0  0
 25 43  1  0  0  0  0
 25 44  1  0  0  0  0
 25 45  1  0  0  0  0
 26 46  1  0  0  0  0
 26 47  1  0  0  0  0
 27 48  1  0  0  0  0
 28 49  1  0  0  0  0
 28 50  1  0  0  0  0
 29 51  1  0  0  0  0
 29 52  1  0  0  0  0
 30 53  1  0  0  0  0
M  END
> <Name>
30

> <IC50[uM]>
0.003

$$$$
30
  -OEChem-05192314333D
 Structure written by MMmdl.
 53 57  0     1  0  0  0  0  0999 V2000
   -6.3720   12.3564  -12.0094 C   0  0  0  0  0  0  0  0  0  0  0  0
   -6.5328   11.8103  -10.7336 C   0  0  0  0  0  0  0  0  0  0  0  0
   -7.7318   10.5755  -13.0290 C   0  0  0  0  0  0  0  0  0  0  0  0
   -6.9898   11.7633  -13.1279 C   0  0  0  0  0  0  0  0  0  0  0  0
   -7.8210   10.0065  -11.7558 C   0  0  0  0  0  0  0  0  0  0  0  0
   -7.2477   10.6184  -10.6026 C   0  0  0  0  0  0  0  0  0  0  0  0
   -7.6140    9.7458   -9.5136 C   0  0  0  0  0  0  0  0  0  0  0  0
   -8.2690    8.7218   -9.9879 N   0  0  0  0  0  0  0  0  0  0  0  0
   -8.4092    8.8538  -11.2990 N   0  0  0  0  0  0  0  0  0  0  0  0
   -7.3381    9.8926   -8.0280 C   0  0  0  0  0  0  0  0  0  0  0  0
   -4.3458   13.7121  -11.5140 N   0  0  0  0  0  0  0  0  0  0  0  0
   -5.5478   13.6364  -12.1864 C   0  0  0  0  0  0  0  0  0  0  0  0
   -5.9572   14.5395  -12.9136 O   0  0  0  0  0  0  0  0  0  0  0  0
   -5.9581   10.4851   -7.7363 C   0  0  0  0  0  0  0  0  0  0  0  0
   -4.8068    9.7633   -8.0566 C   0  0  0  0  0  0  0  0  0  0  0  0
   -3.5506   10.3101   -7.8085 C   0  0  0  0  0  0  0  0  0  0  0  0
   -3.4405   11.5856   -7.2383 C   0  0  0  0  0  0  0  0  0  0  0  0
   -4.5911   12.3019   -6.9155 C   0  0  0  0  0  0  0  0  0  0  0  0
   -5.8461   11.7538   -7.1583 C   0  0  0  0  0  0  0  0  0  0  0  0
   -2.0993   12.1777   -6.9729 C   0  0  0  0  0  0  0  0  0  0  0  0
   -1.7708   13.4214   -6.4416 C   0  0  0  0  0  0  0  0  0  0  0  0
   -0.4313   13.4856   -6.3949 N   0  0  0  0  0  0  0  0  0  0  0  0
    0.1723   12.4145   -6.8299 N   0  0  0  0  0  0  0  0  0  0  0  0
   -0.8042   11.6008   -7.2039 C   0  0  0  0  0  0  0  0  0  0  0  0
    0.3889   14.5981   -5.9187 C   0  0  0  0  0  0  0  0  0  0  0  0
   -3.6987   12.5799  -10.8351 C   0  0  0  0  0  0  0  0  0  0  0  0
   -2.1930   12.9387  -10.9658 C   0  0  2  0  0  0  0  0  0  0  0  0
   -2.1862   14.4653  -10.9438 C   0  0  0  0  0  0  0  0  0  0  0  0
   -3.5086   14.9068  -11.5988 C   0  0  0  0  0  0  0  0  0  0  0  0
   -1.6500   12.4417  -12.1854 O   0  0  0  0  0  0  0  0  0  0  0  0
   -6.1130   12.2997   -9.8672 H   0  0  0  0  0  0  0  0  0  0  0  0
   -8.2070   10.1267  -13.8888 H   0  0  0  0  0  0  0  0  0  0  0  0
   -6.8894   12.2377  -14.0929 H   0  0  0  0  0  0  0  0  0  0  0  0
   -8.6124    7.9552   -9.4454 H   0  0  0  0  0  0  0  0  0  0  0  0
   -8.0412    9.6089   -7.2589 H   0  0  0  0  0  0  0  0  0  0  0  0
   -4.8906    8.7807   -8.4969 H   0  0  0  0  0  0  0  0  0  0  0  0
   -2.6603    9.7509   -8.0557 H   0  0  0  0  0  0  0  0  0  0  0  0
   -4.5083   13.2849   -6.4758 H   0  0  0  0  0  0  0  0  0  0  0  0
   -6.3740   12.4529   -7.8236 H   0  0  0  0  0  0  0  0  0  0  0  0
   -6.3646   11.7075   -6.1893 H   0  0  0  0  0  0  0  0  0  0  0  0
   -2.4624   14.1888   -6.1268 H   0  0  0  0  0  0  0  0  0  0  0  0
   -0.6455   10.6216   -7.6310 H   0  0  0  0  0  0  0  0  0  0  0  0
    1.4531   14.3351   -6.0101 H   0  0  0  0  0  0  0  0  0  0  0  0
    0.1793   15.4930   -6.5230 H   0  0  0  0  0  0  0  0  0  0  0  0
    0.1513   14.8037   -4.8645 H   0  0  0  0  0  0  0  0  0  0  0  0
   -4.0045   12.5193   -9.7802 H   0  0  0  0  0  0  0  0  0  0  0  0
   -3.9276   11.6290  -11.3384 H   0  0  0  0  0  0  0  0  0  0  0  0
   -1.6452   12.5495  -10.0949 H   0  0  0  0  0  0  0  0  0  0  0  0
   -2.1318   14.8321   -9.9082 H   0  0  0  0  0  0  0  0  0  0  0  0
   -1.3293   14.8517  -11.5151 H   0  0  0  0  0  0  0  0  0  0  0  0
   -3.3493   15.2019  -12.6464 H   0  0  0  0  0  0  0  0  0  0  0  0
   -3.9607   15.7439  -11.0467 H   0  0  0  0  0  0  0  0  0  0  0  0
   -0.7305   12.6738  -12.2410 H   0  0  0  0  0  0  0  0  0  0  0  0
  1  2  2  0  0  0  0
  1  4  1  0  0  0  0
  1 12  1  0  0  0  0
  2  6  1  0  0  0  0
  3  4  2  0  0  0  0
  3  5  1  0  0  0  0
  5  6  1  0  0  0  0
  5  9  2  0  0  0  0
  6  7  2  0  0  0  0
  7  8  1  0  0  0  0
  7 10  1  0  0  0  0
  8  9  1  0  0  0  0
 10 14  2  0  0  0  0
 11 12  1  0  0  0  0
 11 26  1  0  0  0  0
 11 29  1  0  0  0  0
 12 13  2  0  0  0  0
 14 15  1  0  0  0  0
 14 19  1  0  0  0  0
 15 16  2  0  0  0  0
 16 17  1  0  0  0  0
 17 18  2  0  0  0  0
 17 20  1  0  0  0  0
 18 19  1  0  0  0  0
 20 21  2  0  0  0  0
 20 24  1  0  0  0  0
 21 22  1  0  0  0  0
 22 23  1  0  0  0  0
 22 25  1  0  0  0  0
 23 24  2  0  0  0  0
 26 27  1  0  0  0  0
 27 28  1  0  0  0  0
 27 30  1  0  0  0  0
 28 29  1  0  0  0  0
  2 31  1  0  0  0  0
  3 32  1  0  0  0  0
  4 33  1  0  0  0  0
  8 34  1  0  0  0  0
 10 35  1  0  0  0  0
 15 36  1  0  0  0  0
 16 37  1  0  0  0  0
 18 38  1  0  0  0  0
 19 39  1  0  0  0  0
 19 40  1  0  0  0  0
 21 41  1  0  0  0  0
 24 42  1  0  0  0  0
 25 43  1  0  0  0  0
 25 44  1  0  0  0  0
 25 45  1  0  0  0  0
 26 46  1  0  0  0  0
 26 47  1  0  0  0  0
 27 48  1  0  0  0  0
 28 49  1  0  0  0  0
 28 50  1  0  0  0  0
 29 51  1  0  0  0  0
 29 52  1  0  0  0  0
 30 53  1  0  0  0  0
M  END
> <Name>
30

> <IC50[uM]>
0.003

$$$$
30
  -OEChem-05192314333D
 Structure written by MMmdl.
 53 57  0     1  0  0  0  0  0999 V2000
   -6.3720   12.3564  -12.0094 C   0  0  0  0  0  0  0  0  0  0  0  0
   -6.5328   11.8103  -10.7336 C   0  0  0  0  0  0  0  0  0  0  0  0
   -7.7318   10.5755  -13.0290 C   0  0  0  0  0  0  0  0  0  0  0  0
   -6.9898   11.7633  -13.1279 C   0  0  0  0  0  0  0  0  0  0  0  0
   -7.8210   10.0065  -11.7558 C   0  0  0  0  0  0  0  0  0  0  0  0
   -7.2477   10.6184  -10.6026 C   0  0  0  0  0  0  0  0  0  0  0  0
   -7.6140    9.7458   -9.5136 C   0  0  0  0  0  0  0  0  0  0  0  0
   -8.2690    8.7218   -9.9879 N   0  0  0  0  0  0  0  0  0  0  0  0
   -8.4092    8.8538  -11.2990 N   0  0  0  0  0  0  0  0  0  0  0  0
   -7.3381    9.8926   -8.0280 C   0  0  0  0  0  0  0  0  0  0  0  0
   -4.3458   13.7121  -11.5140 N   0  0  0  0  0  0  0  0  0  0  0  0
   -5.5478   13.6364  -12.1864 C   0  0  0  0  0  0  0  0  0  0  0  0
   -5.9572   14.5395  -12.9136 O   0  0  0  0  0  0  0  0  0  0  0  0
   -5.9581   10.4851   -7.7363 C   0  0  0  0  0  0  0  0  0  0  0  0
   -4.8068    9.7633   -8.0566 C   0  0  0  0  0  0  0  0  0  0  0  0
   -3.5506   10.3101   -7.8085 C   0  0  0  0  0  0  0  0  0  0  0  0
   -3.4405   11.5856   -7.2383 C   0  0  0  0  0  0  0  0  0  0  0  0
   -4.5911   12.3019   -6.9155 C   0  0  0  0  0  0  0  0  0  0  0  0
   -5.8461   11.7538   -7.1583 C   0  0  0  0  0  0  0  0  0  0  0  0
   -2.0993   12.1777   -6.9729 C   0  0  0  0  0  0  0  0  0  0  0  0
   -1.7708   13.4214   -6.4416 C   0  0  0  0  0  0  0  0  0  0  0  0
   -0.4313   13.4856   -6.3949 N   0  0  0  0  0  0  0  0  0  0  0  0
    0.1723   12.4145   -6.8299 N   0  0  0  0  0  0  0  0  0  0  0  0
   -0.8042   11.6008   -7.2039 C   0  0  0  0  0  0  0  0  0  0  0  0
    0.3889   14.5981   -5.9187 C   0  0  0  0  0  0  0  0  0  0  0  0
   -3.6987   12.5799  -10.8351 C   0  0  0  0  0  0  0  0  0  0  0  0
   -2.1930   12.9387  -10.9658 C   0  0  2  0  0  0  0  0  0  0  0  0
   -2.1862   14.4653  -10.9438 C   0  0  0  0  0  0  0  0  0  0  0  0
   -3.5086   14.9068  -11.5988 C   0  0  0  0  0  0  0  0  0  0  0  0
   -1.6500   12.4417  -12.1854 O   0  0  0  0  0  0  0  0  0  0  0  0
   -6.1130   12.2997   -9.8672 H   0  0  0  0  0  0  0  0  0  0  0  0
   -8.2070   10.1267  -13.8888 H   0  0  0  0  0  0  0  0  0  0  0  0
   -6.8894   12.2377  -14.0929 H   0  0  0  0  0  0  0  0  0  0  0  0
   -8.8844    8.1955  -11.8828 H   0  0  0  0  0  0  0  0  0  0  0  0
   -8.0412    9.6089   -7.2589 H   0  0  0  0  0  0  0  0  0  0  0  0
   -4.8906    8.7807   -8.4969 H   0  0  0  0  0  0  0  0  0  0  0  0
   -2.6603    9.7509   -8.0557 H   0  0  0  0  0  0  0  0  0  0  0  0
   -4.5083   13.2849   -6.4758 H   0  0  0  0  0  0  0  0  0  0  0  0
   -6.3740   12.4529   -7.8236 H   0  0  0  0  0  0  0  0  0  0  0  0
   -6.3646   11.7075   -6.1893 H   0  0  0  0  0  0  0  0  0  0  0  0
   -2.4624   14.1888   -6.1268 H   0  0  0  0  0  0  0  0  0  0  0  0
   -0.6455   10.6216   -7.6310 H   0  0  0  0  0  0  0  0  0  0  0  0
    1.4531   14.3351   -6.0101 H   0  0  0  0  0  0  0  0  0  0  0  0
    0.1793   15.4930   -6.5230 H   0  0  0  0  0  0  0  0  0  0  0  0
    0.1513   14.8037   -4.8645 H   0  0  0  0  0  0  0  0  0  0  0  0
   -4.0045   12.5193   -9.7802 H   0  0  0  0  0  0  0  0  0  0  0  0
   -3.9276   11.6290  -11.3384 H   0  0  0  0  0  0  0  0  0  0  0  0
   -1.6452   12.5495  -10.0949 H   0  0  0  0  0  0  0  0  0  0  0  0
   -2.1318   14.8321   -9.9082 H   0  0  0  0  0  0  0  0  0  0  0  0
   -1.3293   14.8517  -11.5151 H   0  0  0  0  0  0  0  0  0  0  0  0
   -3.3493   15.2019  -12.6464 H   0  0  0  0  0  0  0  0  0  0  0  0
   -3.9607   15.7439  -11.0467 H   0  0  0  0  0  0  0  0  0  0  0  0
   -0.7305   12.6738  -12.2410 H   0  0  0  0  0  0  0  0  0  0  0  0
  1  2  2  0  0  0  0
  1  4  1  0  0  0  0
  1 12  1  0  0  0  0
  2  6  1  0  0  0  0
  3  4  2  0  0  0  0
  3  5  1  0  0  0  0
  5  6  2  0  0  0  0
  5  9  1  0  0  0  0
  6  7  1  0  0  0  0
  7  8  2  0  0  0  0
  7 10  1  0  0  0  0
  8  9  1  0  0  0  0
 10 14  2  0  0  0  0
 11 12  1  0  0  0  0
 11 26  1  0  0  0  0
 11 29  1  0  0  0  0
 12 13  2  0  0  0  0
 14 15  1  0  0  0  0
 14 19  1  0  0  0  0
 15 16  2  0  0  0  0
 16 17  1  0  0  0  0
 17 18  2  0  0  0  0
 17 20  1  0  0  0  0
 18 19  1  0  0  0  0
 20 21  2  0  0  0  0
 20 24  1  0  0  0  0
 21 22  1  0  0  0  0
 22 23  1  0  0  0  0
 22 25  1  0  0  0  0
 23 24  2  0  0  0  0
 26 27  1  0  0  0  0
 27 28  1  0  0  0  0
 27 30  1  0  0  0  0
 28 29  1  0  0  0  0
  2 31  1  0  0  0  0
  3 32  1  0  0  0  0
  4 33  1  0  0  0  0
  9 34  1  0  0  0  0
 10 35  1  0  0  0  0
 15 36  1  0  0  0  0
 16 37  1  0  0  0  0
 18 38  1  0  0  0  0
 19 39  1  0  0  0  0
 19 40  1  0  0  0  0
 21 41  1  0  0  0  0
 24 42  1  0  0  0  0
 25 43  1  0  0  0  0
 25 44  1  0  0  0  0
 25 45  1  0  0  0  0
 26 46  1  0  0  0  0
 26 47  1  0  0  0  0
 27 48  1  0  0  0  0
 28 49  1  0  0  0  0
 28 50  1  0  0  0  0
 29 51  1  0  0  0  0
 29 52  1  0  0  0  0
 30 53  1  0  0  0  0
M  END
> <Name>
30

> <IC50[uM]>
0.003

$$$$
30
  -OEChem-05192314333D
 Structure written by MMmdl.
 53 57  0     1  0  0  0  0  0999 V2000
   -6.3720   12.3564  -12.0094 C   0  0  0  0  0  0  0  0  0  0  0  0
   -6.5328   11.8103  -10.7336 C   0  0  0  0  0  0  0  0  0  0  0  0
   -7.7318   10.5755  -13.0290 C   0  0  0  0  0  0  0  0  0  0  0  0
   -6.9898   11.7633  -13.1279 C   0  0  0  0  0  0  0  0  0  0  0  0
   -7.8210   10.0065  -11.7558 C   0  0  0  0  0  0  0  0  0  0  0  0
   -7.2477   10.6184  -10.6026 C   0  0  0  0  0  0  0  0  0  0  0  0
   -7.6140    9.7458   -9.5136 C   0  0  0  0  0  0  0  0  0  0  0  0
   -8.2690    8.7218   -9.9879 N   0  0  0  0  0  0  0  0  0  0  0  0
   -8.4092    8.8538  -11.2990 N   0  0  0  0  0  0  0  0  0  0  0  0
   -7.3381    9.8926   -8.0280 C   0  0  0  0  0  0  0  0  0  0  0  0
   -4.3458   13.7121  -11.5140 N   0  0  0  0  0  0  0  0  0  0  0  0
   -5.5478   13.6364  -12.1864 C   0  0  0  0  0  0  0  0  0  0  0  0
   -5.9572   14.5395  -12.9136 O   0  0  0  0  0  0  0  0  0  0  0  0
   -5.9581   10.4851   -7.7363 C   0  0  0  0  0  0  0  0  0  0  0  0
   -4.8068    9.7633   -8.0566 C   0  0  0  0  0  0  0  0  0  0  0  0
   -3.5506   10.3101   -7.8085 C   0  0  0  0  0  0  0  0  0  0  0  0
   -3.4405   11.5856   -7.2383 C   0  0  0  0  0  0  0  0  0  0  0  0
   -4.5911   12.3019   -6.9155 C   0  0  0  0  0  0  0  0  0  0  0  0
   -5.8461   11.7538   -7.1583 C   0  0  0  0  0  0  0  0  0  0  0  0
   -2.0993   12.1777   -6.9729 C   0  0  0  0  0  0  0  0  0  0  0  0
   -1.7708   13.4214   -6.4416 C   0  0  0  0  0  0  0  0  0  0  0  0
   -0.4313   13.4856   -6.3949 N   0  0  0  0  0  0  0  0  0  0  0  0
    0.1723   12.4145   -6.8299 N   0  0  0  0  0  0  0  0  0  0  0  0
   -0.8042   11.6008   -7.2039 C   0  0  0  0  0  0  0  0  0  0  0  0
    0.3889   14.5981   -5.9187 C   0  0  0  0  0  0  0  0  0  0  0  0
   -3.6987   12.5799  -10.8351 C   0  0  0  0  0  0  0  0  0  0  0  0
   -2.1930   12.9387  -10.9658 C   0  0  2  0  0  0  0  0  0  0  0  0
   -2.1862   14.4653  -10.9438 C   0  0  0  0  0  0  0  0  0  0  0  0
   -3.5086   14.9068  -11.5988 C   0  0  0  0  0  0  0  0  0  0  0  0
   -1.6500   12.4417  -12.1854 O   0  0  0  0  0  0  0  0  0  0  0  0
   -6.1130   12.2997   -9.8672 H   0  0  0  0  0  0  0  0  0  0  0  0
   -8.2070   10.1267  -13.8888 H   0  0  0  0  0  0  0  0  0  0  0  0
   -6.8894   12.2377  -14.0929 H   0  0  0  0  0  0  0  0  0  0  0  0
   -8.0412    9.6089   -7.2589 H   0  0  0  0  0  0  0  0  0  0  0  0
   -4.8906    8.7807   -8.4969 H   0  0  0  0  0  0  0  0  0  0  0  0
   -2.6603    9.7509   -8.0557 H   0  0  0  0  0  0  0  0  0  0  0  0
   -4.5083   13.2849   -6.4758 H   0  0  0  0  0  0  0  0  0  0  0  0
   -6.7358   12.3089   -6.9000 H   0  0  0  0  0  0  0  0  0  0  0  0
   -2.0886   12.6074   -7.9855 H   0  0  0  0  0  0  0  0  0  0  0  0
   -2.1654   14.2228   -7.0835 H   0  0  0  0  0  0  0  0  0  0  0  0
   -2.1896   13.5226   -5.4295 H   0  0  0  0  0  0  0  0  0  0  0  0
   -0.6455   10.6216   -7.6310 H   0  0  0  0  0  0  0  0  0  0  0  0
    1.4531   14.3351   -6.0101 H   0  0  0  0  0  0  0  0  0  0  0  0
    0.1793   15.4930   -6.5230 H   0  0  0  0  0  0  0  0  0  0  0  0
    0.1513   14.8037   -4.8645 H   0  0  0  0  0  0  0  0  0  0  0  0
   -4.0045   12.5193   -9.7802 H   0  0  0  0  0  0  0  0  0  0  0  0
   -3.9276   11.6290  -11.3384 H   0  0  0  0  0  0  0  0  0  0  0  0
   -1.6452   12.5495  -10.0949 H   0  0  0  0  0  0  0  0  0  0  0  0
   -2.1318   14.8321   -9.9082 H   0  0  0  0  0  0  0  0  0  0  0  0
   -1.3293   14.8517  -11.5151 H   0  0  0  0  0  0  0  0  0  0  0  0
   -3.3493   15.2019  -12.6464 H   0  0  0  0  0  0  0  0  0  0  0  0
   -3.9607   15.7439  -11.0467 H   0  0  0  0  0  0  0  0  0  0  0  0
   -0.7305   12.6738  -12.2410 H   0  0  0  0  0  0  0  0  0  0  0  0
  1  2  2  0  0  0  0
  1  4  1  0  0  0  0
  1 12  1  0  0  0  0
  2  6  1  0  0  0  0
  3  4  2  0  0  0  0
  3  5  1  0  0  0  0
  5  6  2  0  0  0  0
  5  9  1  0  0  0  0
  6  7  1  0  0  0  0
  7  8  1  0  0  0  0
  7 10  2  0  0  0  0
  8  9  2  0  0  0  0
 10 14  1  0  0  0  0
 11 12  1  0  0  0  0
 11 26  1  0  0  0  0
 11 29  1  0  0  0  0
 12 13  2  0  0  0  0
 14 15  2  0  0  0  0
 14 19  1  0  0  0  0
 15 16  1  0  0  0  0
 16 17  2  0  0  0  0
 17 18  1  0  0  0  0
 17 20  1  0  0  0  0
 18 19  2  0  0  0  0
 20 21  1  0  0  0  0
 20 24  1  0  0  0  0
 21 22  1  0  0  0  0
 22 23  1  0  0  0  0
 22 25  1  0  0  0  0
 23 24  2  0  0  0  0
 26 27  1  0  0  0  0
 27 28  1  0  0  0  0
 27 30  1  0  0  0  0
 28 29  1  0  0  0  0
  2 31  1  0  0  0  0
  3 32  1  0  0  0  0
  4 33  1  0  0  0  0
 10 34  1  0  0  0  0
 15 35  1  0  0  0  0
 16 36  1  0  0  0  0
 18 37  1  0  0  0  0
 19 38  1  0  0  0  0
 20 39  1  0  0  0  0
 21 40  1  0  0  0  0
 21 41  1  0  0  0  0
 24 42  1  0  0  0  0
 25 43  1  0  0  0  0
 25 44  1  0  0  0  0
 25 45  1  0  0  0  0
 26 46  1  0  0  0  0
 26 47  1  0  0  0  0
 27 48  1  0  0  0  0
 28 49  1  0  0  0  0
 28 50  1  0  0  0  0
 29 51  1  0  0  0  0
 29 52  1  0  0  0  0
 30 53  1  0  0  0  0
M  END
> <Name>
30

> <IC50[uM]>
0.003

$$$$
30
  -OEChem-05192314333D
 Structure written by MMmdl.
 53 57  0     1  0  0  0  0  0999 V2000
   -6.3720   12.3564  -12.0094 C   0  0  0  0  0  0  0  0  0  0  0  0
   -6.5328   11.8103  -10.7336 C   0  0  0  0  0  0  0  0  0  0  0  0
   -7.7318   10.5755  -13.0290 C   0  0  0  0  0  0  0  0  0  0  0  0
   -6.9898   11.7633  -13.1279 C   0  0  0  0  0  0  0  0  0  0  0  0
   -7.8210   10.0065  -11.7558 C   0  0  0  0  0  0  0  0  0  0  0  0
   -7.2477   10.6184  -10.6026 C   0  0  0  0  0  0  0  0  0  0  0  0
   -7.6140    9.7458   -9.5136 C   0  0  0  0  0  0  0  0  0  0  0  0
   -8.2690    8.7218   -9.9879 N   0  0  0  0  0  0  0  0  0  0  0  0
   -8.4092    8.8538  -11.2990 N   0  0  0  0  0  0  0  0  0  0  0  0
   -7.3381    9.8926   -8.0280 C   0  0  0  0  0  0  0  0  0  0  0  0
   -4.3458   13.7121  -11.5140 N   0  0  0  0  0  0  0  0  0  0  0  0
   -5.5478   13.6364  -12.1864 C   0  0  0  0  0  0  0  0  0  0  0  0
   -5.9572   14.5395  -12.9136 O   0  0  0  0  0  0  0  0  0  0  0  0
   -5.9581   10.4851   -7.7363 C   0  0  0  0  0  0  0  0  0  0  0  0
   -4.8068    9.7633   -8.0566 C   0  0  0  0  0  0  0  0  0  0  0  0
   -3.5506   10.3101   -7.8085 C   0  0  0  0  0  0  0  0  0  0  0  0
   -3.4405   11.5856   -7.2383 C   0  0  0  0  0  0  0  0  0  0  0  0
   -4.5911   12.3019   -6.9155 C   0  0  0  0  0  0  0  0  0  0  0  0
   -5.8461   11.7538   -7.1583 C   0  0  0  0  0  0  0  0  0  0  0  0
   -2.0993   12.1777   -6.9729 C   0  0  0  0  0  0  0  0  0  0  0  0
   -1.7708   13.4214   -6.4416 C   0  0  0  0  0  0  0  0  0  0  0  0
   -0.4313   13.4856   -6.3949 N   0  0  0  0  0  0  0  0  0  0  0  0
    0.1723   12.4145   -6.8299 N   0  0  0  0  0  0  0  0  0  0  0  0
   -0.8042   11.6008   -7.2039 C   0  0  0  0  0  0  0  0  0  0  0  0
    0.3889   14.5981   -5.9187 C   0  0  0  0  0  0  0  0  0  0  0  0
   -3.6987   12.5799  -10.8351 C   0  0  0  0  0  0  0  0  0  0  0  0
   -2.1930   12.9387  -10.9658 C   0  0  2  0  0  0  0  0  0  0  0  0
   -2.1862   14.4653  -10.9438 C   0  0  0  0  0  0  0  0  0  0  0  0
   -3.5086   14.9068  -11.5988 C   0  0  0  0  0  0  0  0  0  0  0  0
   -1.6500   12.4417  -12.1854 O   0  0  0  0  0  0  0  0  0  0  0  0
   -6.1130   12.2997   -9.8672 H   0  0  0  0  0  0  0  0  0  0  0  0
   -8.2070   10.1267  -13.8888 H   0  0  0  0  0  0  0  0  0  0  0  0
   -6.8894   12.2377  -14.0929 H   0  0  0  0  0  0  0  0  0  0  0  0
   -8.0412    9.6089   -7.2589 H   0  0  0  0  0  0  0  0  0  0  0  0
   -4.8906    8.7807   -8.4969 H   0  0  0  0  0  0  0  0  0  0  0  0
   -2.6603    9.7509   -8.0557 H   0  0  0  0  0  0  0  0  0  0  0  0
   -4.5083   13.2849   -6.4758 H   0  0  0  0  0  0  0  0  0  0  0  0
   -6.7358   12.3089   -6.9000 H   0  0  0  0  0  0  0  0  0  0  0  0
   -2.4624   14.1888   -6.1268 H   0  0  0  0  0  0  0  0  0  0  0  0
    0.7635   12.6345   -7.6058 H   0  0  0  0  0  0  0  0  0  0  0  0
   -0.7250   10.6640   -6.6328 H   0  0  0  0  0  0  0  0  0  0  0  0
   -0.6968   11.3860   -8.2774 H   0  0  0  0  0  0  0  0  0  0  0  0
    1.4531   14.3360   -6.0122 H   0  0  0  0  0  0  0  0  0  0  0  0
    0.1776   15.4936   -6.5216 H   0  0  0  0  0  0  0  0  0  0  0  0
    0.1530   14.8022   -4.8639 H   0  0  0  0  0  0  0  0  0  0  0  0
   -4.0045   12.5193   -9.7802 H   0  0  0  0  0  0  0  0  0  0  0  0
   -3.9276   11.6290  -11.3384 H   0  0  0  0  0  0  0  0  0  0  0  0
   -1.6452   12.5495  -10.0949 H   0  0  0  0  0  0  0  0  0  0  0  0
   -2.1318   14.8321   -9.9082 H   0  0  0  0  0  0  0  0  0  0  0  0
   -1.3293   14.8517  -11.5151 H   0  0  0  0  0  0  0  0  0  0  0  0
   -3.3493   15.2019  -12.6464 H   0  0  0  0  0  0  0  0  0  0  0  0
   -3.9607   15.7439  -11.0467 H   0  0  0  0  0  0  0  0  0  0  0  0
   -0.7305   12.6738  -12.2410 H   0  0  0  0  0  0  0  0  0  0  0  0
  1  2  2  0  0  0  0
  1  4  1  0  0  0  0
  1 12  1  0  0  0  0
  2  6  1  0  0  0  0
  3  4  2  0  0  0  0
  3  5  1  0  0  0  0
  5  6  2  0  0  0  0
  5  9  1  0  0  0  0
  6  7  1  0  0  0  0
  7  8  1  0  0  0  0
  7 10  2  0  0  0  0
  8  9  2  0  0  0  0
 10 14  1  0  0  0  0
 11 12  1  0  0  0  0
 11 26  1  0  0  0  0
 11 29  1  0  0  0  0
 12 13  2  0  0  0  0
 14 15  2  0  0  0  0
 14 19  1  0  0  0  0
 15 16  1  0  0  0  0
 16 17  2  0  0  0  0
 17 18  1  0  0  0  0
 17 20  1  0  0  0  0
 18 19  2  0  0  0  0
 20 21  2  0  0  0  0
 20 24  1  0  0  0  0
 21 22  1  0  0  0  0
 22 23  1  0  0  0  0
 22 25  1  0  0  0  0
 23 24  1  0  0  0  0
 26 27  1  0  0  0  0
 27 28  1  0  0  0  0
 27 30  1  0  0  0  0
 28 29  1  0  0  0  0
  2 31  1  0  0  0  0
  3 32  1  0  0  0  0
  4 33  1  0  0  0  0
 10 34  1  0  0  0  0
 15 35  1  0  0  0  0
 16 36  1  0  0  0  0
 18 37  1  0  0  0  0
 19 38  1  0  0  0  0
 21 39  1  0  0  0  0
 23 40  1  0  0  0  0
 24 41  1  0  0  0  0
 24 42  1  0  0  0  0
 25 43  1  0  0  0  0
 25 44  1  0  0  0  0
 25 45  1  0  0  0  0
 26 46  1  0  0  0  0
 26 47  1  0  0  0  0
 27 48  1  0  0  0  0
 28 49  1  0  0  0  0
 28 50  1  0  0  0  0
 29 51  1  0  0  0  0
 29 52  1  0  0  0  0
 30 53  1  0  0  0  0
M  END
> <Name>
30

> <IC50[uM]>
0.003

$$$$
30
  -OEChem-05192314333D
 Structure written by MMmdl.
 53 57  0     1  0  0  0  0  0999 V2000
   -6.3720   12.3564  -12.0094 C   0  0  0  0  0  0  0  0  0  0  0  0
   -6.5328   11.8103  -10.7336 C   0  0  0  0  0  0  0  0  0  0  0  0
   -7.7318   10.5755  -13.0290 C   0  0  0  0  0  0  0  0  0  0  0  0
   -6.9898   11.7633  -13.1279 C   0  0  0  0  0  0  0  0  0  0  0  0
   -7.8210   10.0065  -11.7558 C   0  0  0  0  0  0  0  0  0  0  0  0
   -7.2477   10.6184  -10.6026 C   0  0  0  0  0  0  0  0  0  0  0  0
   -7.6140    9.7458   -9.5136 C   0  0  0  0  0  0  0  0  0  0  0  0
   -8.2690    8.7218   -9.9879 N   0  0  0  0  0  0  0  0  0  0  0  0
   -8.4092    8.8538  -11.2990 N   0  0  0  0  0  0  0  0  0  0  0  0
   -7.3381    9.8926   -8.0280 C   0  0  0  0  0  0  0  0  0  0  0  0
   -4.3458   13.7121  -11.5140 N   0  0  0  0  0  0  0  0  0  0  0  0
   -5.5478   13.6364  -12.1864 C   0  0  0  0  0  0  0  0  0  0  0  0
   -5.9572   14.5395  -12.9136 O   0  0  0  0  0  0  0  0  0  0  0  0
   -5.9581   10.4851   -7.7363 C   0  0  0  0  0  0  0  0  0  0  0  0
   -4.8068    9.7633   -8.0566 C   0  0  0  0  0  0  0  0  0  0  0  0
   -3.5506   10.3101   -7.8085 C   0  0  0  0  0  0  0  0  0  0  0  0
   -3.4405   11.5856   -7.2383 C   0  0  0  0  0  0  0  0  0  0  0  0
   -4.5911   12.3019   -6.9155 C   0  0  0  0  0  0  0  0  0  0  0  0
   -5.8461   11.7538   -7.1583 C   0  0  0  0  0  0  0  0  0  0  0  0
   -2.0993   12.1777   -6.9729 C   0  0  0  0  0  0  0  0  0  0  0  0
   -1.7708   13.4214   -6.4416 C   0  0  0  0  0  0  0  0  0  0  0  0
   -0.4313   13.4856   -6.3949 N   0  0  0  0  0  0  0  0  0  0  0  0
    0.1723   12.4145   -6.8299 N   0  0  0  0  0  0  0  0  0  0  0  0
   -0.8042   11.6008   -7.2039 C   0  0  0  0  0  0  0  0  0  0  0  0
    0.3889   14.5981   -5.9187 C   0  0  0  0  0  0  0  0  0  0  0  0
   -3.6987   12.5799  -10.8351 C   0  0  0  0  0  0  0  0  0  0  0  0
   -2.1930   12.9387  -10.9658 C   0  0  2  0  0  0  0  0  0  0  0  0
   -2.1862   14.4653  -10.9438 C   0  0  0  0  0  0  0  0  0  0  0  0
   -3.5086   14.9068  -11.5988 C   0  0  0  0  0  0  0  0  0  0  0  0
   -1.6500   12.4417  -12.1854 O   0  0  0  0  0  0  0  0  0  0  0  0
   -6.1130   12.2997   -9.8672 H   0  0  0  0  0  0  0  0  0  0  0  0
   -8.2070   10.1267  -13.8888 H   0  0  0  0  0  0  0  0  0  0  0  0
   -6.8894   12.2377  -14.0929 H   0  0  0  0  0  0  0  0  0  0  0  0
   -8.0412    9.6089   -7.2589 H   0  0  0  0  0  0  0  0  0  0  0  0
   -4.8906    8.7807   -8.4969 H   0  0  0  0  0  0  0  0  0  0  0  0
   -2.6603    9.7509   -8.0557 H   0  0  0  0  0  0  0  0  0  0  0  0
   -4.5083   13.2849   -6.4758 H   0  0  0  0  0  0  0  0  0  0  0  0
   -6.7358   12.3089   -6.9000 H   0  0  0  0  0  0  0  0  0  0  0  0
   -2.1654   14.2228   -7.0835 H   0  0  0  0  0  0  0  0  0  0  0  0
   -2.1896   13.5226   -5.4295 H   0  0  0  0  0  0  0  0  0  0  0  0
    0.7635   12.6345   -7.6058 H   0  0  0  0  0  0  0  0  0  0  0  0
   -0.6455   10.6216   -7.6310 H   0  0  0  0  0  0  0  0  0  0  0  0
    1.4531   14.3360   -6.0122 H   0  0  0  0  0  0  0  0  0  0  0  0
    0.1776   15.4936   -6.5216 H   0  0  0  0  0  0  0  0  0  0  0  0
    0.1530   14.8022   -4.8639 H   0  0  0  0  0  0  0  0  0  0  0  0
   -4.0045   12.5193   -9.7802 H   0  0  0  0  0  0  0  0  0  0  0  0
   -3.9276   11.6290  -11.3384 H   0  0  0  0  0  0  0  0  0  0  0  0
   -1.6452   12.5495  -10.0949 H   0  0  0  0  0  0  0  0  0  0  0  0
   -2.1318   14.8321   -9.9082 H   0  0  0  0  0  0  0  0  0  0  0  0
   -1.3293   14.8517  -11.5151 H   0  0  0  0  0  0  0  0  0  0  0  0
   -3.3493   15.2019  -12.6464 H   0  0  0  0  0  0  0  0  0  0  0  0
   -3.9607   15.7439  -11.0467 H   0  0  0  0  0  0  0  0  0  0  0  0
   -0.7305   12.6738  -12.2410 H   0  0  0  0  0  0  0  0  0  0  0  0
  1  2  2  0  0  0  0
  1  4  1  0  0  0  0
  1 12  1  0  0  0  0
  2  6  1  0  0  0  0
  3  4  2  0  0  0  0
  3  5  1  0  0  0  0
  5  6  2  0  0  0  0
  5  9  1  0  0  0  0
  6  7  1  0  0  0  0
  7  8  1  0  0  0  0
  7 10  2  0  0  0  0
  8  9  2  0  0  0  0
 10 14  1  0  0  0  0
 11 12  1  0  0  0  0
 11 26  1  0  0  0  0
 11 29  1  0  0  0  0
 12 13  2  0  0  0  0
 14 15  2  0  0  0  0
 14 19  1  0  0  0  0
 15 16  1  0  0  0  0
 16 17  2  0  0  0  0
 17 18  1  0  0  0  0
 17 20  1  0  0  0  0
 18 19  2  0  0  0  0
 20 21  1  0  0  0  0
 20 24  2  0  0  0  0
 21 22  1  0  0  0  0
 22 23  1  0  0  0  0
 22 25  1  0  0  0  0
 23 24  1  0  0  0  0
 26 27  1  0  0  0  0
 27 28  1  0  0  0  0
 27 30  1  0  0  0  0
 28 29  1  0  0  0  0
  2 31  1  0  0  0  0
  3 32  1  0  0  0  0
  4 33  1  0  0  0  0
 10 34  1  0  0  0  0
 15 35  1  0  0  0  0
 16 36  1  0  0  0  0
 18 37  1  0  0  0  0
 19 38  1  0  0  0  0
 21 39  1  0  0  0  0
 21 40  1  0  0  0  0
 23 41  1  0  0  0  0
 24 42  1  0  0  0  0
 25 43  1  0  0  0  0
 25 44  1  0  0  0  0
 25 45  1  0  0  0  0
 26 46  1  0  0  0  0
 26 47  1  0  0  0  0
 27 48  1  0  0  0  0
 28 49  1  0  0  0  0
 28 50  1  0  0  0  0
 29 51  1  0  0  0  0
 29 52  1  0  0  0  0
 30 53  1  0  0  0  0
M  END
> <Name>
30

> <IC50[uM]>
0.003

$$$$
30
  -OEChem-05192314333D
 Structure written by MMmdl.
 53 57  0     1  0  0  0  0  0999 V2000
   -6.3720   12.3564  -12.0094 C   0  0  0  0  0  0  0  0  0  0  0  0
   -6.5328   11.8103  -10.7336 C   0  0  0  0  0  0  0  0  0  0  0  0
   -7.7318   10.5755  -13.0290 C   0  0  0  0  0  0  0  0  0  0  0  0
   -6.9898   11.7633  -13.1279 C   0  0  0  0  0  0  0  0  0  0  0  0
   -7.8210   10.0065  -11.7558 C   0  0  0  0  0  0  0  0  0  0  0  0
   -7.2477   10.6184  -10.6026 C   0  0  0  0  0  0  0  0  0  0  0  0
   -7.6140    9.7458   -9.5136 C   0  0  0  0  0  0  0  0  0  0  0  0
   -8.2690    8.7218   -9.9879 N   0  0  0  0  0  0  0  0  0  0  0  0
   -8.4092    8.8538  -11.2990 N   0  0  0  0  0  0  0  0  0  0  0  0
   -7.3381    9.8926   -8.0280 C   0  0  0  0  0  0  0  0  0  0  0  0
   -4.3458   13.7121  -11.5140 N   0  0  0  0  0  0  0  0  0  0  0  0
   -5.5478   13.6364  -12.1864 C   0  0  0  0  0  0  0  0  0  0  0  0
   -5.9572   14.5395  -12.9136 O   0  0  0  0  0  0  0  0  0  0  0  0
   -5.9581   10.4851   -7.7363 C   0  0  0  0  0  0  0  0  0  0  0  0
   -4.8068    9.7633   -8.0566 C   0  0  0  0  0  0  0  0  0  0  0  0
   -3.5506   10.3101   -7.8085 C   0  0  0  0  0  0  0  0  0  0  0  0
   -3.4405   11.5856   -7.2383 C   0  0  0  0  0  0  0  0  0  0  0  0
   -4.5911   12.3019   -6.9155 C   0  0  0  0  0  0  0  0  0  0  0  0
   -5.8461   11.7538   -7.1583 C   0  0  0  0  0  0  0  0  0  0  0  0
   -2.0993   12.1777   -6.9729 C   0  0  0  0  0  0  0  0  0  0  0  0
   -1.7708   13.4214   -6.4416 C   0  0  0  0  0  0  0  0  0  0  0  0
   -0.4313   13.4856   -6.3949 N   0  0  0  0  0  0  0  0  0  0  0  0
    0.1723   12.4145   -6.8299 N   0  0  0  0  0  0  0  0  0  0  0  0
   -0.8042   11.6008   -7.2039 C   0  0  0  0  0  0  0  0  0  0  0  0
    0.3889   14.5981   -5.9187 C   0  0  0  0  0  0  0  0  0  0  0  0
   -3.6987   12.5799  -10.8351 C   0  0  0  0  0  0  0  0  0  0  0  0
   -2.1930   12.9387  -10.9658 C   0  0  2  0  0  0  0  0  0  0  0  0
   -2.1862   14.4653  -10.9438 C   0  0  0  0  0  0  0  0  0  0  0  0
   -3.5086   14.9068  -11.5988 C   0  0  0  0  0  0  0  0  0  0  0  0
   -1.6500   12.4417  -12.1854 O   0  0  0  0  0  0  0  0  0  0  0  0
   -6.1130   12.2997   -9.8672 H   0  0  0  0  0  0  0  0  0  0  0  0
   -8.2070   10.1267  -13.8888 H   0  0  0  0  0  0  0  0  0  0  0  0
   -6.8894   12.2377  -14.0929 H   0  0  0  0  0  0  0  0  0  0  0  0
   -6.6683    9.1972   -9.6350 H   0  0  0  0  0  0  0  0  0  0  0  0
   -8.0412    9.6089   -7.2589 H   0  0  0  0  0  0  0  0  0  0  0  0
   -4.8906    8.7807   -8.4969 H   0  0  0  0  0  0  0  0  0  0  0  0
   -2.6603    9.7509   -8.0557 H   0  0  0  0  0  0  0  0  0  0  0  0
   -4.5083   13.2849   -6.4758 H   0  0  0  0  0  0  0  0  0  0  0  0
   -6.7358   12.3089   -6.9000 H   0  0  0  0  0  0  0  0  0  0  0  0
   -2.1654   14.2228   -7.0835 H   0  0  0  0  0  0  0  0  0  0  0  0
   -2.1896   13.5226   -5.4295 H   0  0  0  0  0  0  0  0  0  0  0  0
   -0.6455   10.6216   -7.6310 H   0  0  0  0  0  0  0  0  0  0  0  0
    1.4531   14.3351   -6.0101 H   0  0  0  0  0  0  0  0  0  0  0  0
    0.1793   15.4930   -6.5230 H   0  0  0  0  0  0  0  0  0  0  0  0
    0.1513   14.8037   -4.8645 H   0  0  0  0  0  0  0  0  0  0  0  0
   -4.0045   12.5193   -9.7802 H   0  0  0  0  0  0  0  0  0  0  0  0
   -3.9276   11.6290  -11.3384 H   0  0  0  0  0  0  0  0  0  0  0  0
   -1.6452   12.5495  -10.0949 H   0  0  0  0  0  0  0  0  0  0  0  0
   -2.1318   14.8321   -9.9082 H   0  0  0  0  0  0  0  0  0  0  0  0
   -1.3293   14.8517  -11.5151 H   0  0  0  0  0  0  0  0  0  0  0  0
   -3.3493   15.2019  -12.6464 H   0  0  0  0  0  0  0  0  0  0  0  0
   -3.9607   15.7439  -11.0467 H   0  0  0  0  0  0  0  0  0  0  0  0
   -0.7305   12.6738  -12.2410 H   0  0  0  0  0  0  0  0  0  0  0  0
  1  2  2  0  0  0  0
  1  4  1  0  0  0  0
  1 12  1  0  0  0  0
  2  6  1  0  0  0  0
  3  4  2  0  0  0  0
  3  5  1  0  0  0  0
  5  6  2  0  0  0  0
  5  9  1  0  0  0  0
  6  7  1  0  0  0  0
  7  8  1  0  0  0  0
  7 10  1  0  0  0  0
  8  9  2  0  0  0  0
 10 14  2  0  0  0  0
 11 12  1  0  0  0  0
 11 26  1  0  0  0  0
 11 29  1  0  0  0  0
 12 13  2  0  0  0  0
 14 15  1  0  0  0  0
 14 19  1  0  0  0  0
 15 16  2  0  0  0  0
 16 17  1  0  0  0  0
 17 18  1  0  0  0  0
 17 20  2  0  0  0  0
 18 19  2  0  0  0  0
 20 21  1  0  0  0  0
 20 24  1  0  0  0  0
 21 22  1  0  0  0  0
 22 23  1  0  0  0  0
 22 25  1  0  0  0  0
 23 24  2  0  0  0  0
 26 27  1  0  0  0  0
 27 28  1  0  0  0  0
 27 30  1  0  0  0  0
 28 29  1  0  0  0  0
  2 31  1  0  0  0  0
  3 32  1  0  0  0  0
  4 33  1  0  0  0  0
  7 34  1  0  0  0  0
 10 35  1  0  0  0  0
 15 36  1  0  0  0  0
 16 37  1  0  0  0  0
 18 38  1  0  0  0  0
 19 39  1  0  0  0  0
 21 40  1  0  0  0  0
 21 41  1  0  0  0  0
 24 42  1  0  0  0  0
 25 43  1  0  0  0  0
 25 44  1  0  0  0  0
 25 45  1  0  0  0  0
 26 46  1  0  0  0  0
 26 47  1  0  0  0  0
 27 48  1  0  0  0  0
 28 49  1  0  0  0  0
 28 50  1  0  0  0  0
 29 51  1  0  0  0  0
 29 52  1  0  0  0  0
 30 53  1  0  0  0  0
M  END
> <Name>
30

> <IC50[uM]>
0.003

$$$$
30
  -OEChem-05192314333D
 Structure written by MMmdl.
 53 57  0     1  0  0  0  0  0999 V2000
   -6.3720   12.3564  -12.0094 C   0  0  0  0  0  0  0  0  0  0  0  0
   -6.5328   11.8103  -10.7336 C   0  0  0  0  0  0  0  0  0  0  0  0
   -7.7318   10.5755  -13.0290 C   0  0  0  0  0  0  0  0  0  0  0  0
   -6.9898   11.7633  -13.1279 C   0  0  0  0  0  0  0  0  0  0  0  0
   -7.8210   10.0065  -11.7558 C   0  0  0  0  0  0  0  0  0  0  0  0
   -7.2477   10.6184  -10.6026 C   0  0  0  0  0  0  0  0  0  0  0  0
   -7.6140    9.7458   -9.5136 C   0  0  0  0  0  0  0  0  0  0  0  0
   -8.2690    8.7218   -9.9879 N   0  0  0  0  0  0  0  0  0  0  0  0
   -8.4092    8.8538  -11.2990 N   0  0  0  0  0  0  0  0  0  0  0  0
   -7.3381    9.8926   -8.0280 C   0  0  0  0  0  0  0  0  0  0  0  0
   -4.3458   13.7121  -11.5140 N   0  0  0  0  0  0  0  0  0  0  0  0
   -5.5478   13.6364  -12.1864 C   0  0  0  0  0  0  0  0  0  0  0  0
   -5.9572   14.5395  -12.9136 O   0  0  0  0  0  0  0  0  0  0  0  0
   -5.9581   10.4851   -7.7363 C   0  0  0  0  0  0  0  0  0  0  0  0
   -4.8068    9.7633   -8.0566 C   0  0  0  0  0  0  0  0  0  0  0  0
   -3.5506   10.3101   -7.8085 C   0  0  0  0  0  0  0  0  0  0  0  0
   -3.4405   11.5856   -7.2383 C   0  0  0  0  0  0  0  0  0  0  0  0
   -4.5911   12.3019   -6.9155 C   0  0  0  0  0  0  0  0  0  0  0  0
   -5.8461   11.7538   -7.1583 C   0  0  0  0  0  0  0  0  0  0  0  0
   -2.0993   12.1777   -6.9729 C   0  0  0  0  0  0  0  0  0  0  0  0
   -1.7708   13.4214   -6.4416 C   0  0  0  0  0  0  0  0  0  0  0  0
   -0.4313   13.4856   -6.3949 N   0  0  0  0  0  0  0  0  0  0  0  0
    0.1723   12.4145   -6.8299 N   0  0  0  0  0  0  0  0  0  0  0  0
   -0.8042   11.6008   -7.2039 C   0  0  0  0  0  0  0  0  0  0  0  0
    0.3889   14.5981   -5.9187 C   0  0  0  0  0  0  0  0  0  0  0  0
   -3.6987   12.5799  -10.8351 C   0  0  0  0  0  0  0  0  0  0  0  0
   -2.1930   12.9387  -10.9658 C   0  0  2  0  0  0  0  0  0  0  0  0
   -2.1862   14.4653  -10.9438 C   0  0  0  0  0  0  0  0  0  0  0  0
   -3.5086   14.9068  -11.5988 C   0  0  0  0  0  0  0  0  0  0  0  0
   -1.6500   12.4417  -12.1854 O   0  0  0  0  0  0  0  0  0  0  0  0
   -5.4723   11.7440  -12.1691 H   0  0  0  0  0  0  0  0  0  0  0  0
   -6.1130   12.2997   -9.8672 H   0  0  0  0  0  0  0  0  0  0  0  0
   -8.2070   10.1267  -13.8888 H   0  0  0  0  0  0  0  0  0  0  0  0
   -6.8894   12.2377  -14.0929 H   0  0  0  0  0  0  0  0  0  0  0  0
   -8.1029   10.5522   -7.5921 H   0  0  0  0  0  0  0  0  0  0  0  0
   -7.4002    8.8994   -7.5593 H   0  0  0  0  0  0  0  0  0  0  0  0
   -4.8906    8.7807   -8.4969 H   0  0  0  0  0  0  0  0  0  0  0  0
   -2.6603    9.7509   -8.0557 H   0  0  0  0  0  0  0  0  0  0  0  0
   -4.5083   13.2849   -6.4758 H   0  0  0  0  0  0  0  0  0  0  0  0
   -6.7358   12.3089   -6.9000 H   0  0  0  0  0  0  0  0  0  0  0  0
   -2.4624   14.1888   -6.1268 H   0  0  0  0  0  0  0  0  0  0  0  0
   -0.6455   10.6216   -7.6310 H   0  0  0  0  0  0  0  0  0  0  0  0
    1.4531   14.3351   -6.0101 H   0  0  0  0  0  0  0  0  0  0  0  0
    0.1793   15.4930   -6.5230 H   0  0  0  0  0  0  0  0  0  0  0  0
    0.1513   14.8037   -4.8645 H   0  0  0  0  0  0  0  0  0  0  0  0
   -4.0045   12.5193   -9.7802 H   0  0  0  0  0  0  0  0  0  0  0  0
   -3.9276   11.6290  -11.3384 H   0  0  0  0  0  0  0  0  0  0  0  0
   -1.6452   12.5495  -10.0949 H   0  0  0  0  0  0  0  0  0  0  0  0
   -2.1318   14.8321   -9.9082 H   0  0  0  0  0  0  0  0  0  0  0  0
   -1.3293   14.8517  -11.5151 H   0  0  0  0  0  0  0  0  0  0  0  0
   -3.3493   15.2019  -12.6464 H   0  0  0  0  0  0  0  0  0  0  0  0
   -3.9607   15.7439  -11.0467 H   0  0  0  0  0  0  0  0  0  0  0  0
   -0.7305   12.6738  -12.2410 H   0  0  0  0  0  0  0  0  0  0  0  0
  1  2  1  0  0  0  0
  1  4  1  0  0  0  0
  1 12  1  0  0  0  0
  2  6  2  0  0  0  0
  3  4  2  0  0  0  0
  3  5  1  0  0  0  0
  5  6  1  0  0  0  0
  5  9  2  0  0  0  0
  6  7  1  0  0  0  0
  7  8  2  0  0  0  0
  7 10  1  0  0  0  0
  8  9  1  0  0  0  0
 10 14  1  0  0  0  0
 11 12  1  0  0  0  0
 11 26  1  0  0  0  0
 11 29  1  0  0  0  0
 12 13  2  0  0  0  0
 14 15  2  0  0  0  0
 14 19  1  0  0  0  0
 15 16  1  0  0  0  0
 16 17  2  0  0  0  0
 17 18  1  0  0  0  0
 17 20  1  0  0  0  0
 18 19  2  0  0  0  0
 20 21  2  0  0  0  0
 20 24  1  0  0  0  0
 21 22  1  0  0  0  0
 22 23  1  0  0  0  0
 22 25  1  0  0  0  0
 23 24  2  0  0  0  0
 26 27  1  0  0  0  0
 27 28  1  0  0  0  0
 27 30  1  0  0  0  0
 28 29  1  0  0  0  0
  1 31  1  0  0  0  0
  2 32  1  0  0  0  0
  3 33  1  0  0  0  0
  4 34  1  0  0  0  0
 10 35  1  0  0  0  0
 10 36  1  0  0  0  0
 15 37  1  0  0  0  0
 16 38  1  0  0  0  0
 18 39  1  0  0  0  0
 19 40  1  0  0  0  0
 21 41  1  0  0  0  0
 24 42  1  0  0  0  0
 25 43  1  0  0  0  0
 25 44  1  0  0  0  0
 25 45  1  0  0  0  0
 26 46  1  0  0  0  0
 26 47  1  0  0  0  0
 27 48  1  0  0  0  0
 28 49  1  0  0  0  0
 28 50  1  0  0  0  0
 29 51  1  0  0  0  0
 29 52  1  0  0  0  0
 30 53  1  0  0  0  0
M  END
> <Name>
30

> <IC50[uM]>
0.003

$$$$
30
  -OEChem-05192314333D
 Structure written by MMmdl.
 53 57  0     1  0  0  0  0  0999 V2000
   -6.3720   12.3564  -12.0094 C   0  0  0  0  0  0  0  0  0  0  0  0
   -6.5328   11.8103  -10.7336 C   0  0  0  0  0  0  0  0  0  0  0  0
   -7.7318   10.5755  -13.0290 C   0  0  0  0  0  0  0  0  0  0  0  0
   -6.9898   11.7633  -13.1279 C   0  0  0  0  0  0  0  0  0  0  0  0
   -7.8210   10.0065  -11.7558 C   0  0  0  0  0  0  0  0  0  0  0  0
   -7.2477   10.6184  -10.6026 C   0  0  0  0  0  0  0  0  0  0  0  0
   -7.6140    9.7458   -9.5136 C   0  0  0  0  0  0  0  0  0  0  0  0
   -8.2690    8.7218   -9.9879 N   0  0  0  0  0  0  0  0  0  0  0  0
   -8.4092    8.8538  -11.2990 N   0  0  0  0  0  0  0  0  0  0  0  0
   -7.3381    9.8926   -8.0280 C   0  0  0  0  0  0  0  0  0  0  0  0
   -4.3458   13.7121  -11.5140 N   0  0  0  0  0  0  0  0  0  0  0  0
   -5.5478   13.6364  -12.1864 C   0  0  0  0  0  0  0  0  0  0  0  0
   -5.9572   14.5395  -12.9136 O   0  0  0  0  0  0  0  0  0  0  0  0
   -5.9581   10.4851   -7.7363 C   0  0  0  0  0  0  0  0  0  0  0  0
   -4.8068    9.7633   -8.0566 C   0  0  0  0  0  0  0  0  0  0  0  0
   -3.5506   10.3101   -7.8085 C   0  0  0  0  0  0  0  0  0  0  0  0
   -3.4405   11.5856   -7.2383 C   0  0  0  0  0  0  0  0  0  0  0  0
   -4.5911   12.3019   -6.9155 C   0  0  0  0  0  0  0  0  0  0  0  0
   -5.8461   11.7538   -7.1583 C   0  0  0  0  0  0  0  0  0  0  0  0
   -2.0993   12.1777   -6.9729 C   0  0  0  0  0  0  0  0  0  0  0  0
   -1.7708   13.4214   -6.4416 C   0  0  0  0  0  0  0  0  0  0  0  0
   -0.4313   13.4856   -6.3949 N   0  0  0  0  0  0  0  0  0  0  0  0
    0.1723   12.4145   -6.8299 N   0  0  0  0  0  0  0  0  0  0  0  0
   -0.8042   11.6008   -7.2039 C   0  0  0  0  0  0  0  0  0  0  0  0
    0.3889   14.5981   -5.9187 C   0  0  0  0  0  0  0  0  0  0  0  0
   -3.6987   12.5799  -10.8351 C   0  0  0  0  0  0  0  0  0  0  0  0
   -2.1930   12.9387  -10.9658 C   0  0  2  0  0  0  0  0  0  0  0  0
   -2.1862   14.4653  -10.9438 C   0  0  0  0  0  0  0  0  0  0  0  0
   -3.5086   14.9068  -11.5988 C   0  0  0  0  0  0  0  0  0  0  0  0
   -1.6500   12.4417  -12.1854 O   0  0  0  0  0  0  0  0  0  0  0  0
   -6.1130   12.2997   -9.8672 H   0  0  0  0  0  0  0  0  0  0  0  0
   -8.2070   10.1267  -13.8888 H   0  0  0  0  0  0  0  0  0  0  0  0
   -6.8894   12.2377  -14.0929 H   0  0  0  0  0  0  0  0  0  0  0  0
   -6.3222   10.0437  -10.7549 H   0  0  0  0  0  0  0  0  0  0  0  0
   -8.1029   10.5522   -7.5921 H   0  0  0  0  0  0  0  0  0  0  0  0
   -7.4002    8.8994   -7.5593 H   0  0  0  0  0  0  0  0  0  0  0  0
   -4.8906    8.7807   -8.4969 H   0  0  0  0  0  0  0  0  0  0  0  0
   -2.6603    9.7509   -8.0557 H   0  0  0  0  0  0  0  0  0  0  0  0
   -4.5083   13.2849   -6.4758 H   0  0  0  0  0  0  0  0  0  0  0  0
   -6.7358   12.3089   -6.9000 H   0  0  0  0  0  0  0  0  0  0  0  0
   -2.4624   14.1888   -6.1268 H   0  0  0  0  0  0  0  0  0  0  0  0
   -0.6455   10.6216   -7.6310 H   0  0  0  0  0  0  0  0  0  0  0  0
    1.4531   14.3351   -6.0101 H   0  0  0  0  0  0  0  0  0  0  0  0
    0.1793   15.4930   -6.5230 H   0  0  0  0  0  0  0  0  0  0  0  0
    0.1513   14.8037   -4.8645 H   0  0  0  0  0  0  0  0  0  0  0  0
   -4.0045   12.5193   -9.7802 H   0  0  0  0  0  0  0  0  0  0  0  0
   -3.9276   11.6290  -11.3384 H   0  0  0  0  0  0  0  0  0  0  0  0
   -1.6452   12.5495  -10.0949 H   0  0  0  0  0  0  0  0  0  0  0  0
   -2.1318   14.8321   -9.9082 H   0  0  0  0  0  0  0  0  0  0  0  0
   -1.3293   14.8517  -11.5151 H   0  0  0  0  0  0  0  0  0  0  0  0
   -3.3493   15.2019  -12.6464 H   0  0  0  0  0  0  0  0  0  0  0  0
   -3.9607   15.7439  -11.0467 H   0  0  0  0  0  0  0  0  0  0  0  0
   -0.7305   12.6738  -12.2410 H   0  0  0  0  0  0  0  0  0  0  0  0
  1  2  2  0  0  0  0
  1  4  1  0  0  0  0
  1 12  1  0  0  0  0
  2  6  1  0  0  0  0
  3  4  2  0  0  0  0
  3  5  1  0  0  0  0
  5  6  1  0  0  0  0
  5  9  2  0  0  0  0
  6  7  1  0  0  0  0
  7  8  2  0  0  0  0
  7 10  1  0  0  0  0
  8  9  1  0  0  0  0
 10 14  1  0  0  0  0
 11 12  1  0  0  0  0
 11 26  1  0  0  0  0
 11 29  1  0  0  0  0
 12 13  2  0  0  0  0
 14 15  2  0  0  0  0
 14 19  1  0  0  0  0
 15 16  1  0  0  0  0
 16 17  2  0  0  0  0
 17 18  1  0  0  0  0
 17 20  1  0  0  0  0
 18 19  2  0  0  0  0
 20 21  2  0  0  0  0
 20 24  1  0  0  0  0
 21 22  1  0  0  0  0
 22 23  1  0  0  0  0
 22 25  1  0  0  0  0
 23 24  2  0  0  0  0
 26 27  1  0  0  0  0
 27 28  1  0  0  0  0
 27 30  1  0  0  0  0
 28 29  1  0  0  0  0
  2 31  1  0  0  0  0
  3 32  1  0  0  0  0
  4 33  1  0  0  0  0
  6 34  1  0  0  0  0
 10 35  1  0  0  0  0
 10 36  1  0  0  0  0
 15 37  1  0  0  0  0
 16 38  1  0  0  0  0
 18 39  1  0  0  0  0
 19 40  1  0  0  0  0
 21 41  1  0  0  0  0
 24 42  1  0  0  0  0
 25 43  1  0  0  0  0
 25 44  1  0  0  0  0
 25 45  1  0  0  0  0
 26 46  1  0  0  0  0
 26 47  1  0  0  0  0
 27 48  1  0  0  0  0
 28 49  1  0  0  0  0
 28 50  1  0  0  0  0
 29 51  1  0  0  0  0
 29 52  1  0  0  0  0
 30 53  1  0  0  0  0
M  END
> <Name>
30

> <IC50[uM]>
0.003

$$$$
30
  -OEChem-05192314333D
 Structure written by MMmdl.
 53 57  0     1  0  0  0  0  0999 V2000
   -6.3720   12.3564  -12.0094 C   0  0  0  0  0  0  0  0  0  0  0  0
   -6.5328   11.8103  -10.7336 C   0  0  0  0  0  0  0  0  0  0  0  0
   -7.7318   10.5755  -13.0290 C   0  0  0  0  0  0  0  0  0  0  0  0
   -6.9898   11.7633  -13.1279 C   0  0  0  0  0  0  0  0  0  0  0  0
   -7.8210   10.0065  -11.7558 C   0  0  0  0  0  0  0  0  0  0  0  0
   -7.2477   10.6184  -10.6026 C   0  0  0  0  0  0  0  0  0  0  0  0
   -7.6140    9.7458   -9.5136 C   0  0  0  0  0  0  0  0  0  0  0  0
   -8.2690    8.7218   -9.9879 N   0  0  0  0  0  0  0  0  0  0  0  0
   -8.4092    8.8538  -11.2990 N   0  0  0  0  0  0  0  0  0  0  0  0
   -7.3381    9.8926   -8.0280 C   0  0  0  0  0  0  0  0  0  0  0  0
   -4.3458   13.7121  -11.5140 N   0  0  0  0  0  0  0  0  0  0  0  0
   -5.5478   13.6364  -12.1864 C   0  0  0  0  0  0  0  0  0  0  0  0
   -5.9572   14.5395  -12.9136 O   0  0  0  0  0  0  0  0  0  0  0  0
   -5.9581   10.4851   -7.7363 C   0  0  0  0  0  0  0  0  0  0  0  0
   -4.8068    9.7633   -8.0566 C   0  0  0  0  0  0  0  0  0  0  0  0
   -3.5506   10.3101   -7.8085 C   0  0  0  0  0  0  0  0  0  0  0  0
   -3.4405   11.5856   -7.2383 C   0  0  0  0  0  0  0  0  0  0  0  0
   -4.5911   12.3019   -6.9155 C   0  0  0  0  0  0  0  0  0  0  0  0
   -5.8461   11.7538   -7.1583 C   0  0  0  0  0  0  0  0  0  0  0  0
   -2.0993   12.1777   -6.9729 C   0  0  0  0  0  0  0  0  0  0  0  0
   -1.7708   13.4214   -6.4416 C   0  0  0  0  0  0  0  0  0  0  0  0
   -0.4313   13.4856   -6.3949 N   0  0  0  0  0  0  0  0  0  0  0  0
    0.1723   12.4145   -6.8299 N   0  0  0  0  0  0  0  0  0  0  0  0
   -0.8042   11.6008   -7.2039 C   0  0  0  0  0  0  0  0  0  0  0  0
    0.3889   14.5981   -5.9187 C   0  0  0  0  0  0  0  0  0  0  0  0
   -3.6987   12.5799  -10.8351 C   0  0  0  0  0  0  0  0  0  0  0  0
   -2.1930   12.9387  -10.9658 C   0  0  2  0  0  0  0  0  0  0  0  0
   -2.1862   14.4653  -10.9438 C   0  0  0  0  0  0  0  0  0  0  0  0
   -3.5086   14.9068  -11.5988 C   0  0  0  0  0  0  0  0  0  0  0  0
   -1.6500   12.4417  -12.1854 O   0  0  0  0  0  0  0  0  0  0  0  0
   -6.1130   12.2997   -9.8672 H   0  0  0  0  0  0  0  0  0  0  0  0
   -8.7545   10.7893  -13.3731 H   0  0  0  0  0  0  0  0  0  0  0  0
   -7.2680    9.8339  -13.6960 H   0  0  0  0  0  0  0  0  0  0  0  0
   -6.8894   12.2377  -14.0929 H   0  0  0  0  0  0  0  0  0  0  0  0
   -8.1029   10.5522   -7.5921 H   0  0  0  0  0  0  0  0  0  0  0  0
   -7.4002    8.8994   -7.5593 H   0  0  0  0  0  0  0  0  0  0  0  0
   -4.8906    8.7807   -8.4969 H   0  0  0  0  0  0  0  0  0  0  0  0
   -2.6603    9.7509   -8.0557 H   0  0  0  0  0  0  0  0  0  0  0  0
   -4.5083   13.2849   -6.4758 H   0  0  0  0  0  0  0  0  0  0  0  0
   -6.7358   12.3089   -6.9000 H   0  0  0  0  0  0  0  0  0  0  0  0
   -2.4624   14.1888   -6.1268 H   0  0  0  0  0  0  0  0  0  0  0  0
   -0.6455   10.6216   -7.6310 H   0  0  0  0  0  0  0  0  0  0  0  0
    1.4531   14.3351   -6.0101 H   0  0  0  0  0  0  0  0  0  0  0  0
    0.1793   15.4930   -6.5230 H   0  0  0  0  0  0  0  0  0  0  0  0
    0.1513   14.8037   -4.8645 H   0  0  0  0  0  0  0  0  0  0  0  0
   -4.0045   12.5193   -9.7802 H   0  0  0  0  0  0  0  0  0  0  0  0
   -3.9276   11.6290  -11.3384 H   0  0  0  0  0  0  0  0  0  0  0  0
   -1.6452   12.5495  -10.0949 H   0  0  0  0  0  0  0  0  0  0  0  0
   -2.1318   14.8321   -9.9082 H   0  0  0  0  0  0  0  0  0  0  0  0
   -1.3293   14.8517  -11.5151 H   0  0  0  0  0  0  0  0  0  0  0  0
   -3.3493   15.2019  -12.6464 H   0  0  0  0  0  0  0  0  0  0  0  0
   -3.9607   15.7439  -11.0467 H   0  0  0  0  0  0  0  0  0  0  0  0
   -0.7305   12.6738  -12.2410 H   0  0  0  0  0  0  0  0  0  0  0  0
  1  2  1  0  0  0  0
  1  4  2  0  0  0  0
  1 12  1  0  0  0  0
  2  6  2  0  0  0  0
  3  4  1  0  0  0  0
  3  5  1  0  0  0  0
  5  6  1  0  0  0  0
  5  9  2  0  0  0  0
  6  7  1  0  0  0  0
  7  8  2  0  0  0  0
  7 10  1  0  0  0  0
  8  9  1  0  0  0  0
 10 14  1  0  0  0  0
 11 12  1  0  0  0  0
 11 26  1  0  0  0  0
 11 29  1  0  0  0  0
 12 13  2  0  0  0  0
 14 15  2  0  0  0  0
 14 19  1  0  0  0  0
 15 16  1  0  0  0  0
 16 17  2  0  0  0  0
 17 18  1  0  0  0  0
 17 20  1  0  0  0  0
 18 19  2  0  0  0  0
 20 21  2  0  0  0  0
 20 24  1  0  0  0  0
 21 22  1  0  0  0  0
 22 23  1  0  0  0  0
 22 25  1  0  0  0  0
 23 24  2  0  0  0  0
 26 27  1  0  0  0  0
 27 28  1  0  0  0  0
 27 30  1  0  0  0  0
 28 29  1  0  0  0  0
  2 31  1  0  0  0  0
  3 32  1  0  0  0  0
  3 33  1  0  0  0  0
  4 34  1  0  0  0  0
 10 35  1  0  0  0  0
 10 36  1  0  0  0  0
 15 37  1  0  0  0  0
 16 38  1  0  0  0  0
 18 39  1  0  0  0  0
 19 40  1  0  0  0  0
 21 41  1  0  0  0  0
 24 42  1  0  0  0  0
 25 43  1  0  0  0  0
 25 44  1  0  0  0  0
 25 45  1  0  0  0  0
 26 46  1  0  0  0  0
 26 47  1  0  0  0  0
 27 48  1  0  0  0  0
 28 49  1  0  0  0  0
 28 50  1  0  0  0  0
 29 51  1  0  0  0  0
 29 52  1  0  0  0  0
 30 53  1  0  0  0  0
M  END
> <Name>
30

> <IC50[uM]>
0.003

$$$$
30
  -OEChem-05192314333D
 Structure written by MMmdl.
 53 57  0     1  0  0  0  0  0999 V2000
   -6.3720   12.3564  -12.0094 C   0  0  0  0  0  0  0  0  0  0  0  0
   -6.5328   11.8103  -10.7336 C   0  0  0  0  0  0  0  0  0  0  0  0
   -7.7318   10.5755  -13.0290 C   0  0  0  0  0  0  0  0  0  0  0  0
   -6.9898   11.7633  -13.1279 C   0  0  0  0  0  0  0  0  0  0  0  0
   -7.8210   10.0065  -11.7558 C   0  0  0  0  0  0  0  0  0  0  0  0
   -7.2477   10.6184  -10.6026 C   0  0  0  0  0  0  0  0  0  0  0  0
   -7.6140    9.7458   -9.5136 C   0  0  0  0  0  0  0  0  0  0  0  0
   -8.2690    8.7218   -9.9879 N   0  0  0  0  0  0  0  0  0  0  0  0
   -8.4092    8.8538  -11.2990 N   0  0  0  0  0  0  0  0  0  0  0  0
   -7.3381    9.8926   -8.0280 C   0  0  0  0  0  0  0  0  0  0  0  0
   -4.3458   13.7121  -11.5140 N   0  0  0  0  0  0  0  0  0  0  0  0
   -5.5478   13.6364  -12.1864 C   0  0  0  0  0  0  0  0  0  0  0  0
   -5.9572   14.5395  -12.9136 O   0  0  0  0  0  0  0  0  0  0  0  0
   -5.9581   10.4851   -7.7363 C   0  0  0  0  0  0  0  0  0  0  0  0
   -4.8068    9.7633   -8.0566 C   0  0  0  0  0  0  0  0  0  0  0  0
   -3.5506   10.3101   -7.8085 C   0  0  0  0  0  0  0  0  0  0  0  0
   -3.4405   11.5856   -7.2383 C   0  0  0  0  0  0  0  0  0  0  0  0
   -4.5911   12.3019   -6.9155 C   0  0  0  0  0  0  0  0  0  0  0  0
   -5.8461   11.7538   -7.1583 C   0  0  0  0  0  0  0  0  0  0  0  0
   -2.0993   12.1777   -6.9729 C   0  0  0  0  0  0  0  0  0  0  0  0
   -1.7708   13.4214   -6.4416 C   0  0  0  0  0  0  0  0  0  0  0  0
   -0.4313   13.4856   -6.3949 N   0  0  0  0  0  0  0  0  0  0  0  0
    0.1723   12.4145   -6.8299 N   0  0  0  0  0  0  0  0  0  0  0  0
   -0.8042   11.6008   -7.2039 C   0  0  0  0  0  0  0  0  0  0  0  0
    0.3889   14.5981   -5.9187 C   0  0  0  0  0  0  0  0  0  0  0  0
   -3.6987   12.5799  -10.8351 C   0  0  0  0  0  0  0  0  0  0  0  0
   -2.1930   12.9387  -10.9658 C   0  0  2  0  0  0  0  0  0  0  0  0
   -2.1862   14.4653  -10.9438 C   0  0  0  0  0  0  0  0  0  0  0  0
   -3.5086   14.9068  -11.5988 C   0  0  0  0  0  0  0  0  0  0  0  0
   -1.6500   12.4417  -12.1854 O   0  0  0  0  0  0  0  0  0  0  0  0
   -6.1130   12.2997   -9.8672 H   0  0  0  0  0  0  0  0  0  0  0  0
   -8.2070   10.1267  -13.8888 H   0  0  0  0  0  0  0  0  0  0  0  0
   -6.8894   12.2377  -14.0929 H   0  0  0  0  0  0  0  0  0  0  0  0
   -8.0412    9.6089   -7.2589 H   0  0  0  0  0  0  0  0  0  0  0  0
   -5.9702   10.0274   -6.7361 H   0  0  0  0  0  0  0  0  0  0  0  0
   -4.8906    8.7807   -8.4969 H   0  0  0  0  0  0  0  0  0  0  0  0
   -2.6603    9.7509   -8.0557 H   0  0  0  0  0  0  0  0  0  0  0  0
   -3.4412   12.0353   -8.2422 H   0  0  0  0  0  0  0  0  0  0  0  0
   -4.5083   13.2849   -6.4758 H   0  0  0  0  0  0  0  0  0  0  0  0
   -6.7358   12.3089   -6.9000 H   0  0  0  0  0  0  0  0  0  0  0  0
   -2.4624   14.1888   -6.1268 H   0  0  0  0  0  0  0  0  0  0  0  0
   -0.6455   10.6216   -7.6310 H   0  0  0  0  0  0  0  0  0  0  0  0
    1.4531   14.3351   -6.0101 H   0  0  0  0  0  0  0  0  0  0  0  0
    0.1793   15.4930   -6.5230 H   0  0  0  0  0  0  0  0  0  0  0  0
    0.1513   14.8037   -4.8645 H   0  0  0  0  0  0  0  0  0  0  0  0
   -4.0045   12.5193   -9.7802 H   0  0  0  0  0  0  0  0  0  0  0  0
   -3.9276   11.6290  -11.3384 H   0  0  0  0  0  0  0  0  0  0  0  0
   -1.6452   12.5495  -10.0949 H   0  0  0  0  0  0  0  0  0  0  0  0
   -2.1318   14.8321   -9.9082 H   0  0  0  0  0  0  0  0  0  0  0  0
   -1.3293   14.8517  -11.5151 H   0  0  0  0  0  0  0  0  0  0  0  0
   -3.3493   15.2019  -12.6464 H   0  0  0  0  0  0  0  0  0  0  0  0
   -3.9607   15.7439  -11.0467 H   0  0  0  0  0  0  0  0  0  0  0  0
   -0.7305   12.6738  -12.2410 H   0  0  0  0  0  0  0  0  0  0  0  0
  1  2  2  0  0  0  0
  1  4  1  0  0  0  0
  1 12  1  0  0  0  0
  2  6  1  0  0  0  0
  3  4  2  0  0  0  0
  3  5  1  0  0  0  0
  5  6  2  0  0  0  0
  5  9  1  0  0  0  0
  6  7  1  0  0  0  0
  7  8  1  0  0  0  0
  7 10  2  0  0  0  0
  8  9  2  0  0  0  0
 10 14  1  0  0  0  0
 11 12  1  0  0  0  0
 11 26  1  0  0  0  0
 11 29  1  0  0  0  0
 12 13  2  0  0  0  0
 14 15  1  0  0  0  0
 14 19  1  0  0  0  0
 15 16  2  0  0  0  0
 16 17  1  0  0  0  0
 17 18  1  0  0  0  0
 17 20  1  0  0  0  0
 18 19  2  0  0  0  0
 20 21  2  0  0  0  0
 20 24  1  0  0  0  0
 21 22  1  0  0  0  0
 22 23  1  0  0  0  0
 22 25  1  0  0  0  0
 23 24  2  0  0  0  0
 26 27  1  0  0  0  0
 27 28  1  0  0  0  0
 27 30  1  0  0  0  0
 28 29  1  0  0  0  0
  2 31  1  0  0  0  0
  3 32  1  0  0  0  0
  4 33  1  0  0  0  0
 10 34  1  0  0  0  0
 14 35  1  0  0  0  0
 15 36  1  0  0  0  0
 16 37  1  0  0  0  0
 17 38  1  0  0  0  0
 18 39  1  0  0  0  0
 19 40  1  0  0  0  0
 21 41  1  0  0  0  0
 24 42  1  0  0  0  0
 25 43  1  0  0  0  0
 25 44  1  0  0  0  0
 25 45  1  0  0  0  0
 26 46  1  0  0  0  0
 26 47  1  0  0  0  0
 27 48  1  0  0  0  0
 28 49  1  0  0  0  0
 28 50  1  0  0  0  0
 29 51  1  0  0  0  0
 29 52  1  0  0  0  0
 30 53  1  0  0  0  0
M  END
> <Name>
30

> <IC50[uM]>
0.003

$$$$
30
  -OEChem-05192314333D
 Structure written by MMmdl.
 53 57  0     1  0  0  0  0  0999 V2000
   -6.3720   12.3564  -12.0094 C   0  0  0  0  0  0  0  0  0  0  0  0
   -6.5328   11.8103  -10.7336 C   0  0  0  0  0  0  0  0  0  0  0  0
   -7.7318   10.5755  -13.0290 C   0  0  0  0  0  0  0  0  0  0  0  0
   -6.9898   11.7633  -13.1279 C   0  0  0  0  0  0  0  0  0  0  0  0
   -7.8210   10.0065  -11.7558 C   0  0  0  0  0  0  0  0  0  0  0  0
   -7.2477   10.6184  -10.6026 C   0  0  0  0  0  0  0  0  0  0  0  0
   -7.6140    9.7458   -9.5136 C   0  0  0  0  0  0  0  0  0  0  0  0
   -8.2690    8.7218   -9.9879 N   0  0  0  0  0  0  0  0  0  0  0  0
   -8.4092    8.8538  -11.2990 N   0  0  0  0  0  0  0  0  0  0  0  0
   -7.3381    9.8926   -8.0280 C   0  0  0  0  0  0  0  0  0  0  0  0
   -4.3458   13.7121  -11.5140 N   0  0  0  0  0  0  0  0  0  0  0  0
   -5.5478   13.6364  -12.1864 C   0  0  0  0  0  0  0  0  0  0  0  0
   -5.9572   14.5395  -12.9136 O   0  0  0  0  0  0  0  0  0  0  0  0
   -5.9581   10.4851   -7.7363 C   0  0  0  0  0  0  0  0  0  0  0  0
   -4.8068    9.7633   -8.0566 C   0  0  0  0  0  0  0  0  0  0  0  0
   -3.5506   10.3101   -7.8085 C   0  0  0  0  0  0  0  0  0  0  0  0
   -3.4405   11.5856   -7.2383 C   0  0  0  0  0  0  0  0  0  0  0  0
   -4.5911   12.3019   -6.9155 C   0  0  0  0  0  0  0  0  0  0  0  0
   -5.8461   11.7538   -7.1583 C   0  0  0  0  0  0  0  0  0  0  0  0
   -2.0993   12.1777   -6.9729 C   0  0  0  0  0  0  0  0  0  0  0  0
   -1.7708   13.4214   -6.4416 C   0  0  0  0  0  0  0  0  0  0  0  0
   -0.4313   13.4856   -6.3949 N   0  0  0  0  0  0  0  0  0  0  0  0
    0.1723   12.4145   -6.8299 N   0  0  0  0  0  0  0  0  0  0  0  0
   -0.8042   11.6008   -7.2039 C   0  0  0  0  0  0  0  0  0  0  0  0
    0.3889   14.5981   -5.9187 C   0  0  0  0  0  0  0  0  0  0  0  0
   -3.6987   12.5799  -10.8351 C   0  0  0  0  0  0  0  0  0  0  0  0
   -2.1930   12.9387  -10.9658 C   0  0  2  0  0  0  0  0  0  0  0  0
   -2.1862   14.4653  -10.9438 C   0  0  0  0  0  0  0  0  0  0  0  0
   -3.5086   14.9068  -11.5988 C   0  0  0  0  0  0  0  0  0  0  0  0
   -1.6500   12.4417  -12.1854 O   0  0  0  0  0  0  0  0  0  0  0  0
   -6.1130   12.2997   -9.8672 H   0  0  0  0  0  0  0  0  0  0  0  0
   -8.2070   10.1267  -13.8888 H   0  0  0  0  0  0  0  0  0  0  0  0
   -6.8894   12.2377  -14.0929 H   0  0  0  0  0  0  0  0  0  0  0  0
   -6.6683    9.1972   -9.6350 H   0  0  0  0  0  0  0  0  0  0  0  0
   -8.0412    9.6089   -7.2589 H   0  0  0  0  0  0  0  0  0  0  0  0
   -4.8906    8.7807   -8.4969 H   0  0  0  0  0  0  0  0  0  0  0  0
   -2.6603    9.7509   -8.0557 H   0  0  0  0  0  0  0  0  0  0  0  0
   -3.4412   12.0353   -8.2422 H   0  0  0  0  0  0  0  0  0  0  0  0
   -4.5083   13.2849   -6.4758 H   0  0  0  0  0  0  0  0  0  0  0  0
   -6.7358   12.3089   -6.9000 H   0  0  0  0  0  0  0  0  0  0  0  0
   -2.4624   14.1888   -6.1268 H   0  0  0  0  0  0  0  0  0  0  0  0
   -0.6455   10.6216   -7.6310 H   0  0  0  0  0  0  0  0  0  0  0  0
    1.4531   14.3351   -6.0101 H   0  0  0  0  0  0  0  0  0  0  0  0
    0.1793   15.4930   -6.5230 H   0  0  0  0  0  0  0  0  0  0  0  0
    0.1513   14.8037   -4.8645 H   0  0  0  0  0  0  0  0  0  0  0  0
   -4.0045   12.5193   -9.7802 H   0  0  0  0  0  0  0  0  0  0  0  0
   -3.9276   11.6290  -11.3384 H   0  0  0  0  0  0  0  0  0  0  0  0
   -1.6452   12.5495  -10.0949 H   0  0  0  0  0  0  0  0  0  0  0  0
   -2.1318   14.8321   -9.9082 H   0  0  0  0  0  0  0  0  0  0  0  0
   -1.3293   14.8517  -11.5151 H   0  0  0  0  0  0  0  0  0  0  0  0
   -3.3493   15.2019  -12.6464 H   0  0  0  0  0  0  0  0  0  0  0  0
   -3.9607   15.7439  -11.0467 H   0  0  0  0  0  0  0  0  0  0  0  0
   -0.7305   12.6738  -12.2410 H   0  0  0  0  0  0  0  0  0  0  0  0
  1  2  2  0  0  0  0
  1  4  1  0  0  0  0
  1 12  1  0  0  0  0
  2  6  1  0  0  0  0
  3  4  2  0  0  0  0
  3  5  1  0  0  0  0
  5  6  2  0  0  0  0
  5  9  1  0  0  0  0
  6  7  1  0  0  0  0
  7  8  1  0  0  0  0
  7 10  1  0  0  0  0
  8  9  2  0  0  0  0
 10 14  2  0  0  0  0
 11 12  1  0  0  0  0
 11 26  1  0  0  0  0
 11 29  1  0  0  0  0
 12 13  2  0  0  0  0
 14 15  1  0  0  0  0
 14 19  1  0  0  0  0
 15 16  2  0  0  0  0
 16 17  1  0  0  0  0
 17 18  1  0  0  0  0
 17 20  1  0  0  0  0
 18 19  2  0  0  0  0
 20 21  2  0  0  0  0
 20 24  1  0  0  0  0
 21 22  1  0  0  0  0
 22 23  1  0  0  0  0
 22 25  1  0  0  0  0
 23 24  2  0  0  0  0
 26 27  1  0  0  0  0
 27 28  1  0  0  0  0
 27 30  1  0  0  0  0
 28 29  1  0  0  0  0
  2 31  1  0  0  0  0
  3 32  1  0  0  0  0
  4 33  1  0  0  0  0
  7 34  1  0  0  0  0
 10 35  1  0  0  0  0
 15 36  1  0  0  0  0
 16 37  1  0  0  0  0
 17 38  1  0  0  0  0
 18 39  1  0  0  0  0
 19 40  1  0  0  0  0
 21 41  1  0  0  0  0
 24 42  1  0  0  0  0
 25 43  1  0  0  0  0
 25 44  1  0  0  0  0
 25 45  1  0  0  0  0
 26 46  1  0  0  0  0
 26 47  1  0  0  0  0
 27 48  1  0  0  0  0
 28 49  1  0  0  0  0
 28 50  1  0  0  0  0
 29 51  1  0  0  0  0
 29 52  1  0  0  0  0
 30 53  1  0  0  0  0
M  END
> <Name>
30

> <IC50[uM]>
0.003

$$$$
30
  -OEChem-05192314333D
 Structure written by MMmdl.
 53 57  0     1  0  0  0  0  0999 V2000
   -6.3720   12.3564  -12.0094 C   0  0  0  0  0  0  0  0  0  0  0  0
   -6.5328   11.8103  -10.7336 C   0  0  0  0  0  0  0  0  0  0  0  0
   -7.7318   10.5755  -13.0290 C   0  0  0  0  0  0  0  0  0  0  0  0
   -6.9898   11.7633  -13.1279 C   0  0  0  0  0  0  0  0  0  0  0  0
   -7.8210   10.0065  -11.7558 C   0  0  0  0  0  0  0  0  0  0  0  0
   -7.2477   10.6184  -10.6026 C   0  0  0  0  0  0  0  0  0  0  0  0
   -7.6140    9.7458   -9.5136 C   0  0  0  0  0  0  0  0  0  0  0  0
   -8.2690    8.7218   -9.9879 N   0  0  0  0  0  0  0  0  0  0  0  0
   -8.4092    8.8538  -11.2990 N   0  0  0  0  0  0  0  0  0  0  0  0
   -7.3381    9.8926   -8.0280 C   0  0  0  0  0  0  0  0  0  0  0  0
   -4.3458   13.7121  -11.5140 N   0  0  0  0  0  0  0  0  0  0  0  0
   -5.5478   13.6364  -12.1864 C   0  0  0  0  0  0  0  0  0  0  0  0
   -5.9572   14.5395  -12.9136 O   0  0  0  0  0  0  0  0  0  0  0  0
   -5.9581   10.4851   -7.7363 C   0  0  0  0  0  0  0  0  0  0  0  0
   -4.8068    9.7633   -8.0566 C   0  0  0  0  0  0  0  0  0  0  0  0
   -3.5506   10.3101   -7.8085 C   0  0  0  0  0  0  0  0  0  0  0  0
   -3.4405   11.5856   -7.2383 C   0  0  0  0  0  0  0  0  0  0  0  0
   -4.5911   12.3019   -6.9155 C   0  0  0  0  0  0  0  0  0  0  0  0
   -5.8461   11.7538   -7.1583 C   0  0  0  0  0  0  0  0  0  0  0  0
   -2.0993   12.1777   -6.9729 C   0  0  0  0  0  0  0  0  0  0  0  0
   -1.7708   13.4214   -6.4416 C   0  0  0  0  0  0  0  0  0  0  0  0
   -0.4313   13.4856   -6.3949 N   0  0  0  0  0  0  0  0  0  0  0  0
    0.1723   12.4145   -6.8299 N   0  0  0  0  0  0  0  0  0  0  0  0
   -0.8042   11.6008   -7.2039 C   0  0  0  0  0  0  0  0  0  0  0  0
    0.3889   14.5981   -5.9187 C   0  0  0  0  0  0  0  0  0  0  0  0
   -3.6987   12.5799  -10.8351 C   0  0  0  0  0  0  0  0  0  0  0  0
   -2.1930   12.9387  -10.9658 C   0  0  2  0  0  0  0  0  0  0  0  0
   -2.1862   14.4653  -10.9438 C   0  0  0  0  0  0  0  0  0  0  0  0
   -3.5086   14.9068  -11.5988 C   0  0  0  0  0  0  0  0  0  0  0  0
   -1.6500   12.4417  -12.1854 O   0  0  0  0  0  0  0  0  0  0  0  0
   -5.4723   11.7440  -12.1691 H   0  0  0  0  0  0  0  0  0  0  0  0
   -6.1130   12.2997   -9.8672 H   0  0  0  0  0  0  0  0  0  0  0  0
   -8.2070   10.1267  -13.8888 H   0  0  0  0  0  0  0  0  0  0  0  0
   -6.8894   12.2377  -14.0929 H   0  0  0  0  0  0  0  0  0  0  0  0
   -6.8834    9.4593  -11.9332 H   0  0  0  0  0  0  0  0  0  0  0  0
   -8.0412    9.6089   -7.2589 H   0  0  0  0  0  0  0  0  0  0  0  0
   -4.8906    8.7807   -8.4969 H   0  0  0  0  0  0  0  0  0  0  0  0
   -2.6603    9.7509   -8.0557 H   0  0  0  0  0  0  0  0  0  0  0  0
   -4.5083   13.2849   -6.4758 H   0  0  0  0  0  0  0  0  0  0  0  0
   -6.7358   12.3089   -6.9000 H   0  0  0  0  0  0  0  0  0  0  0  0
   -2.4624   14.1888   -6.1268 H   0  0  0  0  0  0  0  0  0  0  0  0
   -0.6455   10.6216   -7.6310 H   0  0  0  0  0  0  0  0  0  0  0  0
    1.4531   14.3351   -6.0101 H   0  0  0  0  0  0  0  0  0  0  0  0
    0.1793   15.4930   -6.5230 H   0  0  0  0  0  0  0  0  0  0  0  0
    0.1513   14.8037   -4.8645 H   0  0  0  0  0  0  0  0  0  0  0  0
   -4.0045   12.5193   -9.7802 H   0  0  0  0  0  0  0  0  0  0  0  0
   -3.9276   11.6290  -11.3384 H   0  0  0  0  0  0  0  0  0  0  0  0
   -1.6452   12.5495  -10.0949 H   0  0  0  0  0  0  0  0  0  0  0  0
   -2.1318   14.8321   -9.9082 H   0  0  0  0  0  0  0  0  0  0  0  0
   -1.3293   14.8517  -11.5151 H   0  0  0  0  0  0  0  0  0  0  0  0
   -3.3493   15.2019  -12.6464 H   0  0  0  0  0  0  0  0  0  0  0  0
   -3.9607   15.7439  -11.0467 H   0  0  0  0  0  0  0  0  0  0  0  0
   -0.7305   12.6738  -12.2410 H   0  0  0  0  0  0  0  0  0  0  0  0
  1  2  1  0  0  0  0
  1  4  1  0  0  0  0
  1 12  1  0  0  0  0
  2  6  2  0  0  0  0
  3  4  2  0  0  0  0
  3  5  1  0  0  0  0
  5  6  1  0  0  0  0
  5  9  1  0  0  0  0
  6  7  1  0  0  0  0
  7  8  1  0  0  0  0
  7 10  2  0  0  0  0
  8  9  2  0  0  0  0
 10 14  1  0  0  0  0
 11 12  1  0  0  0  0
 11 26  1  0  0  0  0
 11 29  1  0  0  0  0
 12 13  2  0  0  0  0
 14 15  2  0  0  0  0
 14 19  1  0  0  0  0
 15 16  1  0  0  0  0
 16 17  2  0  0  0  0
 17 18  1  0  0  0  0
 17 20  1  0  0  0  0
 18 19  2  0  0  0  0
 20 21  2  0  0  0  0
 20 24  1  0  0  0  0
 21 22  1  0  0  0  0
 22 23  1  0  0  0  0
 22 25  1  0  0  0  0
 23 24  2  0  0  0  0
 26 27  1  0  0  0  0
 27 28  1  0  0  0  0
 27 30  1  0  0  0  0
 28 29  1  0  0  0  0
  1 31  1  0  0  0  0
  2 32  1  0  0  0  0
  3 33  1  0  0  0  0
  4 34  1  0  0  0  0
  5 35  1  0  0  0  0
 10 36  1  0  0  0  0
 15 37  1  0  0  0  0
 16 38  1  0  0  0  0
 18 39  1  0  0  0  0
 19 40  1  0  0  0  0
 21 41  1  0  0  0  0
 24 42  1  0  0  0  0
 25 43  1  0  0  0  0
 25 44  1  0  0  0  0
 25 45  1  0  0  0  0
 26 46  1  0  0  0  0
 26 47  1  0  0  0  0
 27 48  1  0  0  0  0
 28 49  1  0  0  0  0
 28 50  1  0  0  0  0
 29 51  1  0  0  0  0
 29 52  1  0  0  0  0
 30 53  1  0  0  0  0
M  END
> <Name>
30

> <IC50[uM]>
0.003

$$$$
30
  -OEChem-05192314333D
 Structure written by MMmdl.
 53 57  0     1  0  0  0  0  0999 V2000
   -6.3720   12.3564  -12.0094 C   0  0  0  0  0  0  0  0  0  0  0  0
   -6.5328   11.8103  -10.7336 C   0  0  0  0  0  0  0  0  0  0  0  0
   -7.7318   10.5755  -13.0290 C   0  0  0  0  0  0  0  0  0  0  0  0
   -6.9898   11.7633  -13.1279 C   0  0  0  0  0  0  0  0  0  0  0  0
   -7.8210   10.0065  -11.7558 C   0  0  0  0  0  0  0  0  0  0  0  0
   -7.2477   10.6184  -10.6026 C   0  0  0  0  0  0  0  0  0  0  0  0
   -7.6140    9.7458   -9.5136 C   0  0  0  0  0  0  0  0  0  0  0  0
   -8.2690    8.7218   -9.9879 N   0  0  0  0  0  0  0  0  0  0  0  0
   -8.4092    8.8538  -11.2990 N   0  0  0  0  0  0  0  0  0  0  0  0
   -7.3381    9.8926   -8.0280 C   0  0  0  0  0  0  0  0  0  0  0  0
   -4.3458   13.7121  -11.5140 N   0  0  0  0  0  0  0  0  0  0  0  0
   -5.5478   13.6364  -12.1864 C   0  0  0  0  0  0  0  0  0  0  0  0
   -5.9572   14.5395  -12.9136 O   0  0  0  0  0  0  0  0  0  0  0  0
   -5.9581   10.4851   -7.7363 C   0  0  0  0  0  0  0  0  0  0  0  0
   -4.8068    9.7633   -8.0566 C   0  0  0  0  0  0  0  0  0  0  0  0
   -3.5506   10.3101   -7.8085 C   0  0  0  0  0  0  0  0  0  0  0  0
   -3.4405   11.5856   -7.2383 C   0  0  0  0  0  0  0  0  0  0  0  0
   -4.5911   12.3019   -6.9155 C   0  0  0  0  0  0  0  0  0  0  0  0
   -5.8461   11.7538   -7.1583 C   0  0  0  0  0  0  0  0  0  0  0  0
   -2.0993   12.1777   -6.9729 C   0  0  0  0  0  0  0  0  0  0  0  0
   -1.7708   13.4214   -6.4416 C   0  0  0  0  0  0  0  0  0  0  0  0
   -0.4313   13.4856   -6.3949 N   0  0  0  0  0  0  0  0  0  0  0  0
    0.1723   12.4145   -6.8299 N   0  0  0  0  0  0  0  0  0  0  0  0
   -0.8042   11.6008   -7.2039 C   0  0  0  0  0  0  0  0  0  0  0  0
    0.3889   14.5981   -5.9187 C   0  0  0  0  0  0  0  0  0  0  0  0
   -3.6987   12.5799  -10.8351 C   0  0  0  0  0  0  0  0  0  0  0  0
   -2.1930   12.9387  -10.9658 C   0  0  2  0  0  0  0  0  0  0  0  0
   -2.1862   14.4653  -10.9438 C   0  0  0  0  0  0  0  0  0  0  0  0
   -3.5086   14.9068  -11.5988 C   0  0  0  0  0  0  0  0  0  0  0  0
   -1.6500   12.4417  -12.1854 O   0  0  0  0  0  0  0  0  0  0  0  0
   -6.1130   12.2997   -9.8672 H   0  0  0  0  0  0  0  0  0  0  0  0
   -8.2070   10.1267  -13.8888 H   0  0  0  0  0  0  0  0  0  0  0  0
   -6.8894   12.2377  -14.0929 H   0  0  0  0  0  0  0  0  0  0  0  0
   -6.8834    9.4593  -11.9332 H   0  0  0  0  0  0  0  0  0  0  0  0
   -6.3222   10.0437  -10.7549 H   0  0  0  0  0  0  0  0  0  0  0  0
   -8.0412    9.6089   -7.2589 H   0  0  0  0  0  0  0  0  0  0  0  0
   -4.8906    8.7807   -8.4969 H   0  0  0  0  0  0  0  0  0  0  0  0
   -2.6603    9.7509   -8.0557 H   0  0  0  0  0  0  0  0  0  0  0  0
   -4.5083   13.2849   -6.4758 H   0  0  0  0  0  0  0  0  0  0  0  0
   -6.7358   12.3089   -6.9000 H   0  0  0  0  0  0  0  0  0  0  0  0
   -2.4624   14.1888   -6.1268 H   0  0  0  0  0  0  0  0  0  0  0  0
   -0.6455   10.6216   -7.6310 H   0  0  0  0  0  0  0  0  0  0  0  0
    1.4531   14.3351   -6.0101 H   0  0  0  0  0  0  0  0  0  0  0  0
    0.1793   15.4930   -6.5230 H   0  0  0  0  0  0  0  0  0  0  0  0
    0.1513   14.8037   -4.8645 H   0  0  0  0  0  0  0  0  0  0  0  0
   -4.0045   12.5193   -9.7802 H   0  0  0  0  0  0  0  0  0  0  0  0
   -3.9276   11.6290  -11.3384 H   0  0  0  0  0  0  0  0  0  0  0  0
   -1.6452   12.5495  -10.0949 H   0  0  0  0  0  0  0  0  0  0  0  0
   -2.1318   14.8321   -9.9082 H   0  0  0  0  0  0  0  0  0  0  0  0
   -1.3293   14.8517  -11.5151 H   0  0  0  0  0  0  0  0  0  0  0  0
   -3.3493   15.2019  -12.6464 H   0  0  0  0  0  0  0  0  0  0  0  0
   -3.9607   15.7439  -11.0467 H   0  0  0  0  0  0  0  0  0  0  0  0
   -0.7305   12.6738  -12.2410 H   0  0  0  0  0  0  0  0  0  0  0  0
  1  2  2  0  0  0  0
  1  4  1  0  0  0  0
  1 12  1  0  0  0  0
  2  6  1  0  0  0  0
  3  4  2  0  0  0  0
  3  5  1  0  0  0  0
  5  6  1  0  0  0  0
  5  9  1  0  0  0  0
  6  7  1  0  0  0  0
  7  8  1  0  0  0  0
  7 10  2  0  0  0  0
  8  9  2  0  0  0  0
 10 14  1  0  0  0  0
 11 12  1  0  0  0  0
 11 26  1  0  0  0  0
 11 29  1  0  0  0  0
 12 13  2  0  0  0  0
 14 15  2  0  0  0  0
 14 19  1  0  0  0  0
 15 16  1  0  0  0  0
 16 17  2  0  0  0  0
 17 18  1  0  0  0  0
 17 20  1  0  0  0  0
 18 19  2  0  0  0  0
 20 21  2  0  0  0  0
 20 24  1  0  0  0  0
 21 22  1  0  0  0  0
 22 23  1  0  0  0  0
 22 25  1  0  0  0  0
 23 24  2  0  0  0  0
 26 27  1  0  0  0  0
 27 28  1  0  0  0  0
 27 30  1  0  0  0  0
 28 29  1  0  0  0  0
  2 31  1  0  0  0  0
  3 32  1  0  0  0  0
  4 33  1  0  0  0  0
  5 34  1  0  0  0  0
  6 35  1  0  0  0  0
 10 36  1  0  0  0  0
 15 37  1  0  0  0  0
 16 38  1  0  0  0  0
 18 39  1  0  0  0  0
 19 40  1  0  0  0  0
 21 41  1  0  0  0  0
 24 42  1  0  0  0  0
 25 43  1  0  0  0  0
 25 44  1  0  0  0  0
 25 45  1  0  0  0  0
 26 46  1  0  0  0  0
 26 47  1  0  0  0  0
 27 48  1  0  0  0  0
 28 49  1  0  0  0  0
 28 50  1  0  0  0  0
 29 51  1  0  0  0  0
 29 52  1  0  0  0  0
 30 53  1  0  0  0  0
M  END
> <Name>
30

> <IC50[uM]>
0.003

$$$$
30
  -OEChem-05192314333D
 Structure written by MMmdl.
 53 57  0     1  0  0  0  0  0999 V2000
   -6.3720   12.3564  -12.0094 C   0  0  0  0  0  0  0  0  0  0  0  0
   -6.5328   11.8103  -10.7336 C   0  0  0  0  0  0  0  0  0  0  0  0
   -7.7318   10.5755  -13.0290 C   0  0  0  0  0  0  0  0  0  0  0  0
   -6.9898   11.7633  -13.1279 C   0  0  0  0  0  0  0  0  0  0  0  0
   -7.8210   10.0065  -11.7558 C   0  0  0  0  0  0  0  0  0  0  0  0
   -7.2477   10.6184  -10.6026 C   0  0  0  0  0  0  0  0  0  0  0  0
   -7.6140    9.7458   -9.5136 C   0  0  0  0  0  0  0  0  0  0  0  0
   -8.2690    8.7218   -9.9879 N   0  0  0  0  0  0  0  0  0  0  0  0
   -8.4092    8.8538  -11.2990 N   0  0  0  0  0  0  0  0  0  0  0  0
   -7.3381    9.8926   -8.0280 C   0  0  0  0  0  0  0  0  0  0  0  0
   -4.3458   13.7121  -11.5140 N   0  0  0  0  0  0  0  0  0  0  0  0
   -5.5478   13.6364  -12.1864 C   0  0  0  0  0  0  0  0  0  0  0  0
   -5.9572   14.5395  -12.9136 O   0  0  0  0  0  0  0  0  0  0  0  0
   -5.9581   10.4851   -7.7363 C   0  0  0  0  0  0  0  0  0  0  0  0
   -4.8068    9.7633   -8.0566 C   0  0  0  0  0  0  0  0  0  0  0  0
   -3.5506   10.3101   -7.8085 C   0  0  0  0  0  0  0  0  0  0  0  0
   -3.4405   11.5856   -7.2383 C   0  0  0  0  0  0  0  0  0  0  0  0
   -4.5911   12.3019   -6.9155 C   0  0  0  0  0  0  0  0  0  0  0  0
   -5.8461   11.7538   -7.1583 C   0  0  0  0  0  0  0  0  0  0  0  0
   -2.0993   12.1777   -6.9729 C   0  0  0  0  0  0  0  0  0  0  0  0
   -1.7708   13.4214   -6.4416 C   0  0  0  0  0  0  0  0  0  0  0  0
   -0.4313   13.4856   -6.3949 N   0  0  0  0  0  0  0  0  0  0  0  0
    0.1723   12.4145   -6.8299 N   0  0  0  0  0  0  0  0  0  0  0  0
   -0.8042   11.6008   -7.2039 C   0  0  0  0  0  0  0  0  0  0  0  0
    0.3889   14.5981   -5.9187 C   0  0  0  0  0  0  0  0  0  0  0  0
   -3.6987   12.5799  -10.8351 C   0  0  0  0  0  0  0  0  0  0  0  0
   -2.1930   12.9387  -10.9658 C   0  0  2  0  0  0  0  0  0  0  0  0
   -2.1862   14.4653  -10.9438 C   0  0  0  0  0  0  0  0  0  0  0  0
   -3.5086   14.9068  -11.5988 C   0  0  0  0  0  0  0  0  0  0  0  0
   -1.6500   12.4417  -12.1854 O   0  0  0  0  0  0  0  0  0  0  0  0
   -6.1130   12.2997   -9.8672 H   0  0  0  0  0  0  0  0  0  0  0  0
   -8.7545   10.7893  -13.3731 H   0  0  0  0  0  0  0  0  0  0  0  0
   -7.2680    9.8339  -13.6960 H   0  0  0  0  0  0  0  0  0  0  0  0
   -6.8894   12.2377  -14.0929 H   0  0  0  0  0  0  0  0  0  0  0  0
   -6.8834    9.4593  -11.9332 H   0  0  0  0  0  0  0  0  0  0  0  0
   -8.0412    9.6089   -7.2589 H   0  0  0  0  0  0  0  0  0  0  0  0
   -4.8906    8.7807   -8.4969 H   0  0  0  0  0  0  0  0  0  0  0  0
   -2.6603    9.7509   -8.0557 H   0  0  0  0  0  0  0  0  0  0  0  0
   -4.5083   13.2849   -6.4758 H   0  0  0  0  0  0  0  0  0  0  0  0
   -6.7358   12.3089   -6.9000 H   0  0  0  0  0  0  0  0  0  0  0  0
   -2.4624   14.1888   -6.1268 H   0  0  0  0  0  0  0  0  0  0  0  0
   -0.6455   10.6216   -7.6310 H   0  0  0  0  0  0  0  0  0  0  0  0
    1.4531   14.3351   -6.0101 H   0  0  0  0  0  0  0  0  0  0  0  0
    0.1793   15.4930   -6.5230 H   0  0  0  0  0  0  0  0  0  0  0  0
    0.1513   14.8037   -4.8645 H   0  0  0  0  0  0  0  0  0  0  0  0
   -4.0045   12.5193   -9.7802 H   0  0  0  0  0  0  0  0  0  0  0  0
   -3.9276   11.6290  -11.3384 H   0  0  0  0  0  0  0  0  0  0  0  0
   -1.6452   12.5495  -10.0949 H   0  0  0  0  0  0  0  0  0  0  0  0
   -2.1318   14.8321   -9.9082 H   0  0  0  0  0  0  0  0  0  0  0  0
   -1.3293   14.8517  -11.5151 H   0  0  0  0  0  0  0  0  0  0  0  0
   -3.3493   15.2019  -12.6464 H   0  0  0  0  0  0  0  0  0  0  0  0
   -3.9607   15.7439  -11.0467 H   0  0  0  0  0  0  0  0  0  0  0  0
   -0.7305   12.6738  -12.2410 H   0  0  0  0  0  0  0  0  0  0  0  0
  1  2  1  0  0  0  0
  1  4  2  0  0  0  0
  1 12  1  0  0  0  0
  2  6  2  0  0  0  0
  3  4  1  0  0  0  0
  3  5  1  0  0  0  0
  5  6  1  0  0  0  0
  5  9  1  0  0  0  0
  6  7  1  0  0  0  0
  7  8  1  0  0  0  0
  7 10  2  0  0  0  0
  8  9  2  0  0  0  0
 10 14  1  0  0  0  0
 11 12  1  0  0  0  0
 11 26  1  0  0  0  0
 11 29  1  0  0  0  0
 12 13  2  0  0  0  0
 14 15  2  0  0  0  0
 14 19  1  0  0  0  0
 15 16  1  0  0  0  0
 16 17  2  0  0  0  0
 17 18  1  0  0  0  0
 17 20  1  0  0  0  0
 18 19  2  0  0  0  0
 20 21  2  0  0  0  0
 20 24  1  0  0  0  0
 21 22  1  0  0  0  0
 22 23  1  0  0  0  0
 22 25  1  0  0  0  0
 23 24  2  0  0  0  0
 26 27  1  0  0  0  0
 27 28  1  0  0  0  0
 27 30  1  0  0  0  0
 28 29  1  0  0  0  0
  2 31  1  0  0  0  0
  3 32  1  0  0  0  0
  3 33  1  0  0  0  0
  4 34  1  0  0  0  0
  5 35  1  0  0  0  0
 10 36  1  0  0  0  0
 15 37  1  0  0  0  0
 16 38  1  0  0  0  0
 18 39  1  0  0  0  0
 19 40  1  0  0  0  0
 21 41  1  0  0  0  0
 24 42  1  0  0  0  0
 25 43  1  0  0  0  0
 25 44  1  0  0  0  0
 25 45  1  0  0  0  0
 26 46  1  0  0  0  0
 26 47  1  0  0  0  0
 27 48  1  0  0  0  0
 28 49  1  0  0  0  0
 28 50  1  0  0  0  0
 29 51  1  0  0  0  0
 29 52  1  0  0  0  0
 30 53  1  0  0  0  0
M  END
> <Name>
30

> <IC50[uM]>
0.003

$$$$
30
  -OEChem-05192314333D
 Structure written by MMmdl.
 53 57  0     1  0  0  0  0  0999 V2000
   -6.3720   12.3564  -12.0094 C   0  0  0  0  0  0  0  0  0  0  0  0
   -6.5328   11.8103  -10.7336 C   0  0  0  0  0  0  0  0  0  0  0  0
   -7.7318   10.5755  -13.0290 C   0  0  0  0  0  0  0  0  0  0  0  0
   -6.9898   11.7633  -13.1279 C   0  0  0  0  0  0  0  0  0  0  0  0
   -7.8210   10.0065  -11.7558 C   0  0  0  0  0  0  0  0  0  0  0  0
   -7.2477   10.6184  -10.6026 C   0  0  0  0  0  0  0  0  0  0  0  0
   -7.6140    9.7458   -9.5136 C   0  0  0  0  0  0  0  0  0  0  0  0
   -8.2690    8.7218   -9.9879 N   0  0  0  0  0  0  0  0  0  0  0  0
   -8.4092    8.8538  -11.2990 N   0  0  0  0  0  0  0  0  0  0  0  0
   -7.3381    9.8926   -8.0280 C   0  0  0  0  0  0  0  0  0  0  0  0
   -4.3458   13.7121  -11.5140 N   0  0  0  0  0  0  0  0  0  0  0  0
   -5.5478   13.6364  -12.1864 C   0  0  0  0  0  0  0  0  0  0  0  0
   -5.9572   14.5395  -12.9136 O   0  0  0  0  0  0  0  0  0  0  0  0
   -5.9581   10.4851   -7.7363 C   0  0  0  0  0  0  0  0  0  0  0  0
   -4.8068    9.7633   -8.0566 C   0  0  0  0  0  0  0  0  0  0  0  0
   -3.5506   10.3101   -7.8085 C   0  0  0  0  0  0  0  0  0  0  0  0
   -3.4405   11.5856   -7.2383 C   0  0  0  0  0  0  0  0  0  0  0  0
   -4.5911   12.3019   -6.9155 C   0  0  0  0  0  0  0  0  0  0  0  0
   -5.8461   11.7538   -7.1583 C   0  0  0  0  0  0  0  0  0  0  0  0
   -2.0993   12.1777   -6.9729 C   0  0  0  0  0  0  0  0  0  0  0  0
   -1.7708   13.4214   -6.4416 C   0  0  0  0  0  0  0  0  0  0  0  0
   -0.4313   13.4856   -6.3949 N   0  0  0  0  0  0  0  0  0  0  0  0
    0.1723   12.4145   -6.8299 N   0  0  0  0  0  0  0  0  0  0  0  0
   -0.8042   11.6008   -7.2039 C   0  0  0  0  0  0  0  0  0  0  0  0
    0.3889   14.5981   -5.9187 C   0  0  0  0  0  0  0  0  0  0  0  0
   -3.6987   12.5799  -10.8351 C   0  0  0  0  0  0  0  0  0  0  0  0
   -2.1930   12.9387  -10.9658 C   0  0  2  0  0  0  0  0  0  0  0  0
   -2.1862   14.4653  -10.9438 C   0  0  0  0  0  0  0  0  0  0  0  0
   -3.5086   14.9068  -11.5988 C   0  0  0  0  0  0  0  0  0  0  0  0
   -1.6500   12.4417  -12.1854 O   0  0  0  0  0  0  0  0  0  0  0  0
   -6.1130   12.2997   -9.8672 H   0  0  0  0  0  0  0  0  0  0  0  0
   -8.2070   10.1267  -13.8888 H   0  0  0  0  0  0  0  0  0  0  0  0
   -6.8894   12.2377  -14.0929 H   0  0  0  0  0  0  0  0  0  0  0  0
   -8.0412    9.6089   -7.2589 H   0  0  0  0  0  0  0  0  0  0  0  0
   -4.8906    8.7807   -8.4969 H   0  0  0  0  0  0  0  0  0  0  0  0
   -3.0296    9.6149   -7.1338 H   0  0  0  0  0  0  0  0  0  0  0  0
   -3.0246   10.3476   -8.7739 H   0  0  0  0  0  0  0  0  0  0  0  0
   -3.4412   12.0353   -8.2422 H   0  0  0  0  0  0  0  0  0  0  0  0
   -4.5083   13.2849   -6.4758 H   0  0  0  0  0  0  0  0  0  0  0  0
   -6.7358   12.3089   -6.9000 H   0  0  0  0  0  0  0  0  0  0  0  0
   -2.4624   14.1888   -6.1268 H   0  0  0  0  0  0  0  0  0  0  0  0
   -0.6455   10.6216   -7.6310 H   0  0  0  0  0  0  0  0  0  0  0  0
    1.4531   14.3351   -6.0101 H   0  0  0  0  0  0  0  0  0  0  0  0
    0.1793   15.4930   -6.5230 H   0  0  0  0  0  0  0  0  0  0  0  0
    0.1513   14.8037   -4.8645 H   0  0  0  0  0  0  0  0  0  0  0  0
   -4.0045   12.5193   -9.7802 H   0  0  0  0  0  0  0  0  0  0  0  0
   -3.9276   11.6290  -11.3384 H   0  0  0  0  0  0  0  0  0  0  0  0
   -1.6452   12.5495  -10.0949 H   0  0  0  0  0  0  0  0  0  0  0  0
   -2.1318   14.8321   -9.9082 H   0  0  0  0  0  0  0  0  0  0  0  0
   -1.3293   14.8517  -11.5151 H   0  0  0  0  0  0  0  0  0  0  0  0
   -3.3493   15.2019  -12.6464 H   0  0  0  0  0  0  0  0  0  0  0  0
   -3.9607   15.7439  -11.0467 H   0  0  0  0  0  0  0  0  0  0  0  0
   -0.7305   12.6738  -12.2410 H   0  0  0  0  0  0  0  0  0  0  0  0
  1  2  2  0  0  0  0
  1  4  1  0  0  0  0
  1 12  1  0  0  0  0
  2  6  1  0  0  0  0
  3  4  2  0  0  0  0
  3  5  1  0  0  0  0
  5  6  2  0  0  0  0
  5  9  1  0  0  0  0
  6  7  1  0  0  0  0
  7  8  1  0  0  0  0
  7 10  2  0  0  0  0
  8  9  2  0  0  0  0
 10 14  1  0  0  0  0
 11 12  1  0  0  0  0
 11 26  1  0  0  0  0
 11 29  1  0  0  0  0
 12 13  2  0  0  0  0
 14 15  2  0  0  0  0
 14 19  1  0  0  0  0
 15 16  1  0  0  0  0
 16 17  1  0  0  0  0
 17 18  1  0  0  0  0
 17 20  1  0  0  0  0
 18 19  2  0  0  0  0
 20 21  2  0  0  0  0
 20 24  1  0  0  0  0
 21 22  1  0  0  0  0
 22 23  1  0  0  0  0
 22 25  1  0  0  0  0
 23 24  2  0  0  0  0
 26 27  1  0  0  0  0
 27 28  1  0  0  0  0
 27 30  1  0  0  0  0
 28 29  1  0  0  0  0
  2 31  1  0  0  0  0
  3 32  1  0  0  0  0
  4 33  1  0  0  0  0
 10 34  1  0  0  0  0
 15 35  1  0  0  0  0
 16 36  1  0  0  0  0
 16 37  1  0  0  0  0
 17 38  1  0  0  0  0
 18 39  1  0  0  0  0
 19 40  1  0  0  0  0
 21 41  1  0  0  0  0
 24 42  1  0  0  0  0
 25 43  1  0  0  0  0
 25 44  1  0  0  0  0
 25 45  1  0  0  0  0
 26 46  1  0  0  0  0
 26 47  1  0  0  0  0
 27 48  1  0  0  0  0
 28 49  1  0  0  0  0
 28 50  1  0  0  0  0
 29 51  1  0  0  0  0
 29 52  1  0  0  0  0
 30 53  1  0  0  0  0
M  END
> <Name>
30

> <IC50[uM]>
0.003

$$$$
30
  -OEChem-05192314333D
 Structure written by MMmdl.
 53 57  0     1  0  0  0  0  0999 V2000
   -6.3720   12.3564  -12.0094 C   0  0  0  0  0  0  0  0  0  0  0  0
   -6.5328   11.8103  -10.7336 C   0  0  0  0  0  0  0  0  0  0  0  0
   -7.7318   10.5755  -13.0290 C   0  0  0  0  0  0  0  0  0  0  0  0
   -6.9898   11.7633  -13.1279 C   0  0  0  0  0  0  0  0  0  0  0  0
   -7.8210   10.0065  -11.7558 C   0  0  0  0  0  0  0  0  0  0  0  0
   -7.2477   10.6184  -10.6026 C   0  0  0  0  0  0  0  0  0  0  0  0
   -7.6140    9.7458   -9.5136 C   0  0  0  0  0  0  0  0  0  0  0  0
   -8.2690    8.7218   -9.9879 N   0  0  0  0  0  0  0  0  0  0  0  0
   -8.4092    8.8538  -11.2990 N   0  0  0  0  0  0  0  0  0  0  0  0
   -7.3381    9.8926   -8.0280 C   0  0  0  0  0  0  0  0  0  0  0  0
   -4.3458   13.7121  -11.5140 N   0  0  0  0  0  0  0  0  0  0  0  0
   -5.5478   13.6364  -12.1864 C   0  0  0  0  0  0  0  0  0  0  0  0
   -5.9572   14.5395  -12.9136 O   0  0  0  0  0  0  0  0  0  0  0  0
   -5.9581   10.4851   -7.7363 C   0  0  0  0  0  0  0  0  0  0  0  0
   -4.8068    9.7633   -8.0566 C   0  0  0  0  0  0  0  0  0  0  0  0
   -3.5506   10.3101   -7.8085 C   0  0  0  0  0  0  0  0  0  0  0  0
   -3.4405   11.5856   -7.2383 C   0  0  0  0  0  0  0  0  0  0  0  0
   -4.5911   12.3019   -6.9155 C   0  0  0  0  0  0  0  0  0  0  0  0
   -5.8461   11.7538   -7.1583 C   0  0  0  0  0  0  0  0  0  0  0  0
   -2.0993   12.1777   -6.9729 C   0  0  0  0  0  0  0  0  0  0  0  0
   -1.7708   13.4214   -6.4416 C   0  0  0  0  0  0  0  0  0  0  0  0
   -0.4313   13.4856   -6.3949 N   0  0  0  0  0  0  0  0  0  0  0  0
    0.1723   12.4145   -6.8299 N   0  0  0  0  0  0  0  0  0  0  0  0
   -0.8042   11.6008   -7.2039 C   0  0  0  0  0  0  0  0  0  0  0  0
    0.3889   14.5981   -5.9187 C   0  0  0  0  0  0  0  0  0  0  0  0
   -3.6987   12.5799  -10.8351 C   0  0  0  0  0  0  0  0  0  0  0  0
   -2.1930   12.9387  -10.9658 C   0  0  2  0  0  0  0  0  0  0  0  0
   -2.1862   14.4653  -10.9438 C   0  0  0  0  0  0  0  0  0  0  0  0
   -3.5086   14.9068  -11.5988 C   0  0  0  0  0  0  0  0  0  0  0  0
   -1.6500   12.4417  -12.1854 O   0  0  0  0  0  0  0  0  0  0  0  0
   -5.4723   11.7440  -12.1691 H   0  0  0  0  0  0  0  0  0  0  0  0
   -6.1130   12.2997   -9.8672 H   0  0  0  0  0  0  0  0  0  0  0  0
   -8.2070   10.1267  -13.8888 H   0  0  0  0  0  0  0  0  0  0  0  0
   -7.6747   12.5202  -13.5378 H   0  0  0  0  0  0  0  0  0  0  0  0
   -6.1868   11.5644  -13.8529 H   0  0  0  0  0  0  0  0  0  0  0  0
   -8.0412    9.6089   -7.2589 H   0  0  0  0  0  0  0  0  0  0  0  0
   -4.8906    8.7807   -8.4969 H   0  0  0  0  0  0  0  0  0  0  0  0
   -2.6603    9.7509   -8.0557 H   0  0  0  0  0  0  0  0  0  0  0  0
   -4.5083   13.2849   -6.4758 H   0  0  0  0  0  0  0  0  0  0  0  0
   -6.7358   12.3089   -6.9000 H   0  0  0  0  0  0  0  0  0  0  0  0
   -2.4624   14.1888   -6.1268 H   0  0  0  0  0  0  0  0  0  0  0  0
   -0.6455   10.6216   -7.6310 H   0  0  0  0  0  0  0  0  0  0  0  0
    1.4531   14.3351   -6.0101 H   0  0  0  0  0  0  0  0  0  0  0  0
    0.1793   15.4930   -6.5230 H   0  0  0  0  0  0  0  0  0  0  0  0
    0.1513   14.8037   -4.8645 H   0  0  0  0  0  0  0  0  0  0  0  0
   -4.0045   12.5193   -9.7802 H   0  0  0  0  0  0  0  0  0  0  0  0
   -3.9276   11.6290  -11.3384 H   0  0  0  0  0  0  0  0  0  0  0  0
   -1.6452   12.5495  -10.0949 H   0  0  0  0  0  0  0  0  0  0  0  0
   -2.1318   14.8321   -9.9082 H   0  0  0  0  0  0  0  0  0  0  0  0
   -1.3293   14.8517  -11.5151 H   0  0  0  0  0  0  0  0  0  0  0  0
   -3.3493   15.2019  -12.6464 H   0  0  0  0  0  0  0  0  0  0  0  0
   -3.9607   15.7439  -11.0467 H   0  0  0  0  0  0  0  0  0  0  0  0
   -0.7305   12.6738  -12.2410 H   0  0  0  0  0  0  0  0  0  0  0  0
  1  2  1  0  0  0  0
  1  4  1  0  0  0  0
  1 12  1  0  0  0  0
  2  6  2  0  0  0  0
  3  4  1  0  0  0  0
  3  5  2  0  0  0  0
  5  6  1  0  0  0  0
  5  9  1  0  0  0  0
  6  7  1  0  0  0  0
  7  8  1  0  0  0  0
  7 10  2  0  0  0  0
  8  9  2  0  0  0  0
 10 14  1  0  0  0  0
 11 12  1  0  0  0  0
 11 26  1  0  0  0  0
 11 29  1  0  0  0  0
 12 13  2  0  0  0  0
 14 15  2  0  0  0  0
 14 19  1  0  0  0  0
 15 16  1  0  0  0  0
 16 17  2  0  0  0  0
 17 18  1  0  0  0  0
 17 20  1  0  0  0  0
 18 19  2  0  0  0  0
 20 21  2  0  0  0  0
 20 24  1  0  0  0  0
 21 22  1  0  0  0  0
 22 23  1  0  0  0  0
 22 25  1  0  0  0  0
 23 24  2  0  0  0  0
 26 27  1  0  0  0  0
 27 28  1  0  0  0  0
 27 30  1  0  0  0  0
 28 29  1  0  0  0  0
  1 31  1  0  0  0  0
  2 32  1  0  0  0  0
  3 33  1  0  0  0  0
  4 34  1  0  0  0  0
  4 35  1  0  0  0  0
 10 36  1  0  0  0  0
 15 37  1  0  0  0  0
 16 38  1  0  0  0  0
 18 39  1  0  0  0  0
 19 40  1  0  0  0  0
 21 41  1  0  0  0  0
 24 42  1  0  0  0  0
 25 43  1  0  0  0  0
 25 44  1  0  0  0  0
 25 45  1  0  0  0  0
 26 46  1  0  0  0  0
 26 47  1  0  0  0  0
 27 48  1  0  0  0  0
 28 49  1  0  0  0  0
 28 50  1  0  0  0  0
 29 51  1  0  0  0  0
 29 52  1  0  0  0  0
 30 53  1  0  0  0  0
M  END
> <Name>
30

> <IC50[uM]>
0.003

$$$$
30
  -OEChem-05192314333D
 Structure written by MMmdl.
 53 57  0     1  0  0  0  0  0999 V2000
   -6.3720   12.3564  -12.0094 C   0  0  0  0  0  0  0  0  0  0  0  0
   -6.5328   11.8103  -10.7336 C   0  0  0  0  0  0  0  0  0  0  0  0
   -7.7318   10.5755  -13.0290 C   0  0  0  0  0  0  0  0  0  0  0  0
   -6.9898   11.7633  -13.1279 C   0  0  0  0  0  0  0  0  0  0  0  0
   -7.8210   10.0065  -11.7558 C   0  0  0  0  0  0  0  0  0  0  0  0
   -7.2477   10.6184  -10.6026 C   0  0  0  0  0  0  0  0  0  0  0  0
   -7.6140    9.7458   -9.5136 C   0  0  0  0  0  0  0  0  0  0  0  0
   -8.2690    8.7218   -9.9879 N   0  0  0  0  0  0  0  0  0  0  0  0
   -8.4092    8.8538  -11.2990 N   0  0  0  0  0  0  0  0  0  0  0  0
   -7.3381    9.8926   -8.0280 C   0  0  0  0  0  0  0  0  0  0  0  0
   -4.3458   13.7121  -11.5140 N   0  0  0  0  0  0  0  0  0  0  0  0
   -5.5478   13.6364  -12.1864 C   0  0  0  0  0  0  0  0  0  0  0  0
   -5.9572   14.5395  -12.9136 O   0  0  0  0  0  0  0  0  0  0  0  0
   -5.9581   10.4851   -7.7363 C   0  0  0  0  0  0  0  0  0  0  0  0
   -4.8068    9.7633   -8.0566 C   0  0  0  0  0  0  0  0  0  0  0  0
   -3.5506   10.3101   -7.8085 C   0  0  0  0  0  0  0  0  0  0  0  0
   -3.4405   11.5856   -7.2383 C   0  0  0  0  0  0  0  0  0  0  0  0
   -4.5911   12.3019   -6.9155 C   0  0  0  0  0  0  0  0  0  0  0  0
   -5.8461   11.7538   -7.1583 C   0  0  0  0  0  0  0  0  0  0  0  0
   -2.0993   12.1777   -6.9729 C   0  0  0  0  0  0  0  0  0  0  0  0
   -1.7708   13.4214   -6.4416 C   0  0  0  0  0  0  0  0  0  0  0  0
   -0.4313   13.4856   -6.3949 N   0  0  0  0  0  0  0  0  0  0  0  0
    0.1723   12.4145   -6.8299 N   0  0  0  0  0  0  0  0  0  0  0  0
   -0.8042   11.6008   -7.2039 C   0  0  0  0  0  0  0  0  0  0  0  0
    0.3889   14.5981   -5.9187 C   0  0  0  0  0  0  0  0  0  0  0  0
   -3.6987   12.5799  -10.8351 C   0  0  0  0  0  0  0  0  0  0  0  0
   -2.1930   12.9387  -10.9658 C   0  0  2  0  0  0  0  0  0  0  0  0
   -2.1862   14.4653  -10.9438 C   0  0  0  0  0  0  0  0  0  0  0  0
   -3.5086   14.9068  -11.5988 C   0  0  0  0  0  0  0  0  0  0  0  0
   -1.6500   12.4417  -12.1854 O   0  0  0  0  0  0  0  0  0  0  0  0
   -6.1130   12.2997   -9.8672 H   0  0  0  0  0  0  0  0  0  0  0  0
   -8.2070   10.1267  -13.8888 H   0  0  0  0  0  0  0  0  0  0  0  0
   -7.6747   12.5202  -13.5378 H   0  0  0  0  0  0  0  0  0  0  0  0
   -6.1868   11.5644  -13.8529 H   0  0  0  0  0  0  0  0  0  0  0  0
   -6.3222   10.0437  -10.7549 H   0  0  0  0  0  0  0  0  0  0  0  0
   -8.0412    9.6089   -7.2589 H   0  0  0  0  0  0  0  0  0  0  0  0
   -4.8906    8.7807   -8.4969 H   0  0  0  0  0  0  0  0  0  0  0  0
   -2.6603    9.7509   -8.0557 H   0  0  0  0  0  0  0  0  0  0  0  0
   -4.5083   13.2849   -6.4758 H   0  0  0  0  0  0  0  0  0  0  0  0
   -6.7358   12.3089   -6.9000 H   0  0  0  0  0  0  0  0  0  0  0  0
   -2.4624   14.1888   -6.1268 H   0  0  0  0  0  0  0  0  0  0  0  0
   -0.6455   10.6216   -7.6310 H   0  0  0  0  0  0  0  0  0  0  0  0
    1.4531   14.3351   -6.0101 H   0  0  0  0  0  0  0  0  0  0  0  0
    0.1793   15.4930   -6.5230 H   0  0  0  0  0  0  0  0  0  0  0  0
    0.1513   14.8037   -4.8645 H   0  0  0  0  0  0  0  0  0  0  0  0
   -4.0045   12.5193   -9.7802 H   0  0  0  0  0  0  0  0  0  0  0  0
   -3.9276   11.6290  -11.3384 H   0  0  0  0  0  0  0  0  0  0  0  0
   -1.6452   12.5495  -10.0949 H   0  0  0  0  0  0  0  0  0  0  0  0
   -2.1318   14.8321   -9.9082 H   0  0  0  0  0  0  0  0  0  0  0  0
   -1.3293   14.8517  -11.5151 H   0  0  0  0  0  0  0  0  0  0  0  0
   -3.3493   15.2019  -12.6464 H   0  0  0  0  0  0  0  0  0  0  0  0
   -3.9607   15.7439  -11.0467 H   0  0  0  0  0  0  0  0  0  0  0  0
   -0.7305   12.6738  -12.2410 H   0  0  0  0  0  0  0  0  0  0  0  0
  1  2  2  0  0  0  0
  1  4  1  0  0  0  0
  1 12  1  0  0  0  0
  2  6  1  0  0  0  0
  3  4  1  0  0  0  0
  3  5  2  0  0  0  0
  5  6  1  0  0  0  0
  5  9  1  0  0  0  0
  6  7  1  0  0  0  0
  7  8  1  0  0  0  0
  7 10  2  0  0  0  0
  8  9  2  0  0  0  0
 10 14  1  0  0  0  0
 11 12  1  0  0  0  0
 11 26  1  0  0  0  0
 11 29  1  0  0  0  0
 12 13  2  0  0  0  0
 14 15  2  0  0  0  0
 14 19  1  0  0  0  0
 15 16  1  0  0  0  0
 16 17  2  0  0  0  0
 17 18  1  0  0  0  0
 17 20  1  0  0  0  0
 18 19  2  0  0  0  0
 20 21  2  0  0  0  0
 20 24  1  0  0  0  0
 21 22  1  0  0  0  0
 22 23  1  0  0  0  0
 22 25  1  0  0  0  0
 23 24  2  0  0  0  0
 26 27  1  0  0  0  0
 27 28  1  0  0  0  0
 27 30  1  0  0  0  0
 28 29  1  0  0  0  0
  2 31  1  0  0  0  0
  3 32  1  0  0  0  0
  4 33  1  0  0  0  0
  4 34  1  0  0  0  0
  6 35  1  0  0  0  0
 10 36  1  0  0  0  0
 15 37  1  0  0  0  0
 16 38  1  0  0  0  0
 18 39  1  0  0  0  0
 19 40  1  0  0  0  0
 21 41  1  0  0  0  0
 24 42  1  0  0  0  0
 25 43  1  0  0  0  0
 25 44  1  0  0  0  0
 25 45  1  0  0  0  0
 26 46  1  0  0  0  0
 26 47  1  0  0  0  0
 27 48  1  0  0  0  0
 28 49  1  0  0  0  0
 28 50  1  0  0  0  0
 29 51  1  0  0  0  0
 29 52  1  0  0  0  0
 30 53  1  0  0  0  0
M  END
> <Name>
30

> <IC50[uM]>
0.003

$$$$
30
  -OEChem-05192314333D
 Structure written by MMmdl.
 53 57  0     1  0  0  0  0  0999 V2000
   -6.3720   12.3564  -12.0094 C   0  0  0  0  0  0  0  0  0  0  0  0
   -6.5328   11.8103  -10.7336 C   0  0  0  0  0  0  0  0  0  0  0  0
   -7.7318   10.5755  -13.0290 C   0  0  0  0  0  0  0  0  0  0  0  0
   -6.9898   11.7633  -13.1279 C   0  0  0  0  0  0  0  0  0  0  0  0
   -7.8210   10.0065  -11.7558 C   0  0  0  0  0  0  0  0  0  0  0  0
   -7.2477   10.6184  -10.6026 C   0  0  0  0  0  0  0  0  0  0  0  0
   -7.6140    9.7458   -9.5136 C   0  0  0  0  0  0  0  0  0  0  0  0
   -8.2690    8.7218   -9.9879 N   0  0  0  0  0  0  0  0  0  0  0  0
   -8.4092    8.8538  -11.2990 N   0  0  0  0  0  0  0  0  0  0  0  0
   -7.3381    9.8926   -8.0280 C   0  0  0  0  0  0  0  0  0  0  0  0
   -4.3458   13.7121  -11.5140 N   0  0  0  0  0  0  0  0  0  0  0  0
   -5.5478   13.6364  -12.1864 C   0  0  0  0  0  0  0  0  0  0  0  0
   -5.9572   14.5395  -12.9136 O   0  0  0  0  0  0  0  0  0  0  0  0
   -5.9581   10.4851   -7.7363 C   0  0  0  0  0  0  0  0  0  0  0  0
   -4.8068    9.7633   -8.0566 C   0  0  0  0  0  0  0  0  0  0  0  0
   -3.5506   10.3101   -7.8085 C   0  0  0  0  0  0  0  0  0  0  0  0
   -3.4405   11.5856   -7.2383 C   0  0  0  0  0  0  0  0  0  0  0  0
   -4.5911   12.3019   -6.9155 C   0  0  0  0  0  0  0  0  0  0  0  0
   -5.8461   11.7538   -7.1583 C   0  0  0  0  0  0  0  0  0  0  0  0
   -2.0993   12.1777   -6.9729 C   0  0  0  0  0  0  0  0  0  0  0  0
   -1.7708   13.4214   -6.4416 C   0  0  0  0  0  0  0  0  0  0  0  0
   -0.4313   13.4856   -6.3949 N   0  0  0  0  0  0  0  0  0  0  0  0
    0.1723   12.4145   -6.8299 N   0  0  0  0  0  0  0  0  0  0  0  0
   -0.8042   11.6008   -7.2039 C   0  0  0  0  0  0  0  0  0  0  0  0
    0.3889   14.5981   -5.9187 C   0  0  0  0  0  0  0  0  0  0  0  0
   -3.6987   12.5799  -10.8351 C   0  0  0  0  0  0  0  0  0  0  0  0
   -2.1930   12.9387  -10.9658 C   0  0  2  0  0  0  0  0  0  0  0  0
   -2.1862   14.4653  -10.9438 C   0  0  0  0  0  0  0  0  0  0  0  0
   -3.5086   14.9068  -11.5988 C   0  0  0  0  0  0  0  0  0  0  0  0
   -1.6500   12.4417  -12.1854 O   0  0  0  0  0  0  0  0  0  0  0  0
   -6.1130   12.2997   -9.8672 H   0  0  0  0  0  0  0  0  0  0  0  0
   -8.7545   10.7893  -13.3731 H   0  0  0  0  0  0  0  0  0  0  0  0
   -7.2680    9.8339  -13.6960 H   0  0  0  0  0  0  0  0  0  0  0  0
   -7.6747   12.5202  -13.5378 H   0  0  0  0  0  0  0  0  0  0  0  0
   -6.1868   11.5644  -13.8529 H   0  0  0  0  0  0  0  0  0  0  0  0
   -8.0412    9.6089   -7.2589 H   0  0  0  0  0  0  0  0  0  0  0  0
   -4.8906    8.7807   -8.4969 H   0  0  0  0  0  0  0  0  0  0  0  0
   -2.6603    9.7509   -8.0557 H   0  0  0  0  0  0  0  0  0  0  0  0
   -4.5083   13.2849   -6.4758 H   0  0  0  0  0  0  0  0  0  0  0  0
   -6.7358   12.3089   -6.9000 H   0  0  0  0  0  0  0  0  0  0  0  0
   -2.4624   14.1888   -6.1268 H   0  0  0  0  0  0  0  0  0  0  0  0
   -0.6455   10.6216   -7.6310 H   0  0  0  0  0  0  0  0  0  0  0  0
    1.4531   14.3351   -6.0101 H   0  0  0  0  0  0  0  0  0  0  0  0
    0.1793   15.4930   -6.5230 H   0  0  0  0  0  0  0  0  0  0  0  0
    0.1513   14.8037   -4.8645 H   0  0  0  0  0  0  0  0  0  0  0  0
   -4.0045   12.5193   -9.7802 H   0  0  0  0  0  0  0  0  0  0  0  0
   -3.9276   11.6290  -11.3384 H   0  0  0  0  0  0  0  0  0  0  0  0
   -1.6452   12.5495  -10.0949 H   0  0  0  0  0  0  0  0  0  0  0  0
   -2.1318   14.8321   -9.9082 H   0  0  0  0  0  0  0  0  0  0  0  0
   -1.3293   14.8517  -11.5151 H   0  0  0  0  0  0  0  0  0  0  0  0
   -3.3493   15.2019  -12.6464 H   0  0  0  0  0  0  0  0  0  0  0  0
   -3.9607   15.7439  -11.0467 H   0  0  0  0  0  0  0  0  0  0  0  0
   -0.7305   12.6738  -12.2410 H   0  0  0  0  0  0  0  0  0  0  0  0
  1  2  2  0  0  0  0
  1  4  1  0  0  0  0
  1 12  1  0  0  0  0
  2  6  1  0  0  0  0
  3  4  1  0  0  0  0
  3  5  1  0  0  0  0
  5  6  2  0  0  0  0
  5  9  1  0  0  0  0
  6  7  1  0  0  0  0
  7  8  1  0  0  0  0
  7 10  2  0  0  0  0
  8  9  2  0  0  0  0
 10 14  1  0  0  0  0
 11 12  1  0  0  0  0
 11 26  1  0  0  0  0
 11 29  1  0  0  0  0
 12 13  2  0  0  0  0
 14 15  2  0  0  0  0
 14 19  1  0  0  0  0
 15 16  1  0  0  0  0
 16 17  2  0  0  0  0
 17 18  1  0  0  0  0
 17 20  1  0  0  0  0
 18 19  2  0  0  0  0
 20 21  2  0  0  0  0
 20 24  1  0  0  0  0
 21 22  1  0  0  0  0
 22 23  1  0  0  0  0
 22 25  1  0  0  0  0
 23 24  2  0  0  0  0
 26 27  1  0  0  0  0
 27 28  1  0  0  0  0
 27 30  1  0  0  0  0
 28 29  1  0  0  0  0
  2 31  1  0  0  0  0
  3 32  1  0  0  0  0
  3 33  1  0  0  0  0
  4 34  1  0  0  0  0
  4 35  1  0  0  0  0
 10 36  1  0  0  0  0
 15 37  1  0  0  0  0
 16 38  1  0  0  0  0
 18 39  1  0  0  0  0
 19 40  1  0  0  0  0
 21 41  1  0  0  0  0
 24 42  1  0  0  0  0
 25 43  1  0  0  0  0
 25 44  1  0  0  0  0
 25 45  1  0  0  0  0
 26 46  1  0  0  0  0
 26 47  1  0  0  0  0
 27 48  1  0  0  0  0
 28 49  1  0  0  0  0
 28 50  1  0  0  0  0
 29 51  1  0  0  0  0
 29 52  1  0  0  0  0
 30 53  1  0  0  0  0
M  END
> <Name>
30

> <IC50[uM]>
0.003

$$$$
30
  -OEChem-05192314333D
 Structure written by MMmdl.
 53 57  0     1  0  0  0  0  0999 V2000
   -6.3720   12.3564  -12.0094 C   0  0  0  0  0  0  0  0  0  0  0  0
   -6.5328   11.8103  -10.7336 C   0  0  0  0  0  0  0  0  0  0  0  0
   -7.7318   10.5755  -13.0290 C   0  0  0  0  0  0  0  0  0  0  0  0
   -6.9898   11.7633  -13.1279 C   0  0  0  0  0  0  0  0  0  0  0  0
   -7.8210   10.0065  -11.7558 C   0  0  0  0  0  0  0  0  0  0  0  0
   -7.2477   10.6184  -10.6026 C   0  0  0  0  0  0  0  0  0  0  0  0
   -7.6140    9.7458   -9.5136 C   0  0  0  0  0  0  0  0  0  0  0  0
   -8.2690    8.7218   -9.9879 N   0  0  0  0  0  0  0  0  0  0  0  0
   -8.4092    8.8538  -11.2990 N   0  0  0  0  0  0  0  0  0  0  0  0
   -7.3381    9.8926   -8.0280 C   0  0  0  0  0  0  0  0  0  0  0  0
   -4.3458   13.7121  -11.5140 N   0  0  0  0  0  0  0  0  0  0  0  0
   -5.5478   13.6364  -12.1864 C   0  0  0  0  0  0  0  0  0  0  0  0
   -5.9572   14.5395  -12.9136 O   0  0  0  0  0  0  0  0  0  0  0  0
   -5.9581   10.4851   -7.7363 C   0  0  0  0  0  0  0  0  0  0  0  0
   -4.8068    9.7633   -8.0566 C   0  0  0  0  0  0  0  0  0  0  0  0
   -3.5506   10.3101   -7.8085 C   0  0  0  0  0  0  0  0  0  0  0  0
   -3.4405   11.5856   -7.2383 C   0  0  0  0  0  0  0  0  0  0  0  0
   -4.5911   12.3019   -6.9155 C   0  0  0  0  0  0  0  0  0  0  0  0
   -5.8461   11.7538   -7.1583 C   0  0  0  0  0  0  0  0  0  0  0  0
   -2.0993   12.1777   -6.9729 C   0  0  0  0  0  0  0  0  0  0  0  0
   -1.7708   13.4214   -6.4416 C   0  0  0  0  0  0  0  0  0  0  0  0
   -0.4313   13.4856   -6.3949 N   0  0  0  0  0  0  0  0  0  0  0  0
    0.1723   12.4145   -6.8299 N   0  0  0  0  0  0  0  0  0  0  0  0
   -0.8042   11.6008   -7.2039 C   0  0  0  0  0  0  0  0  0  0  0  0
    0.3889   14.5981   -5.9187 C   0  0  0  0  0  0  0  0  0  0  0  0
   -3.6987   12.5799  -10.8351 C   0  0  0  0  0  0  0  0  0  0  0  0
   -2.1930   12.9387  -10.9658 C   0  0  2  0  0  0  0  0  0  0  0  0
   -2.1862   14.4653  -10.9438 C   0  0  0  0  0  0  0  0  0  0  0  0
   -3.5086   14.9068  -11.5988 C   0  0  0  0  0  0  0  0  0  0  0  0
   -1.6500   12.4417  -12.1854 O   0  0  0  0  0  0  0  0  0  0  0  0
   -6.1130   12.2997   -9.8672 H   0  0  0  0  0  0  0  0  0  0  0  0
   -8.2070   10.1267  -13.8888 H   0  0  0  0  0  0  0  0  0  0  0  0
   -6.8894   12.2377  -14.0929 H   0  0  0  0  0  0  0  0  0  0  0  0
   -8.0412    9.6089   -7.2589 H   0  0  0  0  0  0  0  0  0  0  0  0
   -5.9702   10.0274   -6.7361 H   0  0  0  0  0  0  0  0  0  0  0  0
   -4.8906    8.7807   -8.4969 H   0  0  0  0  0  0  0  0  0  0  0  0
   -2.6603    9.7509   -8.0557 H   0  0  0  0  0  0  0  0  0  0  0  0
   -4.5083   13.2849   -6.4758 H   0  0  0  0  0  0  0  0  0  0  0  0
   -6.3740   12.4529   -7.8236 H   0  0  0  0  0  0  0  0  0  0  0  0
   -6.3646   11.7075   -6.1893 H   0  0  0  0  0  0  0  0  0  0  0  0
   -2.4624   14.1888   -6.1268 H   0  0  0  0  0  0  0  0  0  0  0  0
   -0.6455   10.6216   -7.6310 H   0  0  0  0  0  0  0  0  0  0  0  0
    1.4531   14.3351   -6.0101 H   0  0  0  0  0  0  0  0  0  0  0  0
    0.1793   15.4930   -6.5230 H   0  0  0  0  0  0  0  0  0  0  0  0
    0.1513   14.8037   -4.8645 H   0  0  0  0  0  0  0  0  0  0  0  0
   -4.0045   12.5193   -9.7802 H   0  0  0  0  0  0  0  0  0  0  0  0
   -3.9276   11.6290  -11.3384 H   0  0  0  0  0  0  0  0  0  0  0  0
   -1.6452   12.5495  -10.0949 H   0  0  0  0  0  0  0  0  0  0  0  0
   -2.1318   14.8321   -9.9082 H   0  0  0  0  0  0  0  0  0  0  0  0
   -1.3293   14.8517  -11.5151 H   0  0  0  0  0  0  0  0  0  0  0  0
   -3.3493   15.2019  -12.6464 H   0  0  0  0  0  0  0  0  0  0  0  0
   -3.9607   15.7439  -11.0467 H   0  0  0  0  0  0  0  0  0  0  0  0
   -0.7305   12.6738  -12.2410 H   0  0  0  0  0  0  0  0  0  0  0  0
  1  2  2  0  0  0  0
  1  4  1  0  0  0  0
  1 12  1  0  0  0  0
  2  6  1  0  0  0  0
  3  4  2  0  0  0  0
  3  5  1  0  0  0  0
  5  6  2  0  0  0  0
  5  9  1  0  0  0  0
  6  7  1  0  0  0  0
  7  8  1  0  0  0  0
  7 10  2  0  0  0  0
  8  9  2  0  0  0  0
 10 14  1  0  0  0  0
 11 12  1  0  0  0  0
 11 26  1  0  0  0  0
 11 29  1  0  0  0  0
 12 13  2  0  0  0  0
 14 15  1  0  0  0  0
 14 19  1  0  0  0  0
 15 16  2  0  0  0  0
 16 17  1  0  0  0  0
 17 18  2  0  0  0  0
 17 20  1  0  0  0  0
 18 19  1  0  0  0  0
 20 21  2  0  0  0  0
 20 24  1  0  0  0  0
 21 22  1  0  0  0  0
 22 23  1  0  0  0  0
 22 25  1  0  0  0  0
 23 24  2  0  0  0  0
 26 27  1  0  0  0  0
 27 28  1  0  0  0  0
 27 30  1  0  0  0  0
 28 29  1  0  0  0  0
  2 31  1  0  0  0  0
  3 32  1  0  0  0  0
  4 33  1  0  0  0  0
 10 34  1  0  0  0  0
 14 35  1  0  0  0  0
 15 36  1  0  0  0  0
 16 37  1  0  0  0  0
 18 38  1  0  0  0  0
 19 39  1  0  0  0  0
 19 40  1  0  0  0  0
 21 41  1  0  0  0  0
 24 42  1  0  0  0  0
 25 43  1  0  0  0  0
 25 44  1  0  0  0  0
 25 45  1  0  0  0  0
 26 46  1  0  0  0  0
 26 47  1  0  0  0  0
 27 48  1  0  0  0  0
 28 49  1  0  0  0  0
 28 50  1  0  0  0  0
 29 51  1  0  0  0  0
 29 52  1  0  0  0  0
 30 53  1  0  0  0  0
M  END
> <Name>
30

> <IC50[uM]>
0.003

$$$$
30
  -OEChem-05192314333D
 Structure written by MMmdl.
 53 57  0     1  0  0  0  0  0999 V2000
   -6.3720   12.3564  -12.0094 C   0  0  0  0  0  0  0  0  0  0  0  0
   -6.5328   11.8103  -10.7336 C   0  0  0  0  0  0  0  0  0  0  0  0
   -7.7318   10.5755  -13.0290 C   0  0  0  0  0  0  0  0  0  0  0  0
   -6.9898   11.7633  -13.1279 C   0  0  0  0  0  0  0  0  0  0  0  0
   -7.8210   10.0065  -11.7558 C   0  0  0  0  0  0  0  0  0  0  0  0
   -7.2477   10.6184  -10.6026 C   0  0  0  0  0  0  0  0  0  0  0  0
   -7.6140    9.7458   -9.5136 C   0  0  0  0  0  0  0  0  0  0  0  0
   -8.2690    8.7218   -9.9879 N   0  0  0  0  0  0  0  0  0  0  0  0
   -8.4092    8.8538  -11.2990 N   0  0  0  0  0  0  0  0  0  0  0  0
   -7.3381    9.8926   -8.0280 C   0  0  0  0  0  0  0  0  0  0  0  0
   -4.3458   13.7121  -11.5140 N   0  0  0  0  0  0  0  0  0  0  0  0
   -5.5478   13.6364  -12.1864 C   0  0  0  0  0  0  0  0  0  0  0  0
   -5.9572   14.5395  -12.9136 O   0  0  0  0  0  0  0  0  0  0  0  0
   -5.9581   10.4851   -7.7363 C   0  0  0  0  0  0  0  0  0  0  0  0
   -4.8068    9.7633   -8.0566 C   0  0  0  0  0  0  0  0  0  0  0  0
   -3.5506   10.3101   -7.8085 C   0  0  0  0  0  0  0  0  0  0  0  0
   -3.4405   11.5856   -7.2383 C   0  0  0  0  0  0  0  0  0  0  0  0
   -4.5911   12.3019   -6.9155 C   0  0  0  0  0  0  0  0  0  0  0  0
   -5.8461   11.7538   -7.1583 C   0  0  0  0  0  0  0  0  0  0  0  0
   -2.0993   12.1777   -6.9729 C   0  0  0  0  0  0  0  0  0  0  0  0
   -1.7708   13.4214   -6.4416 C   0  0  0  0  0  0  0  0  0  0  0  0
   -0.4313   13.4856   -6.3949 N   0  0  0  0  0  0  0  0  0  0  0  0
    0.1723   12.4145   -6.8299 N   0  0  0  0  0  0  0  0  0  0  0  0
   -0.8042   11.6008   -7.2039 C   0  0  0  0  0  0  0  0  0  0  0  0
    0.3889   14.5981   -5.9187 C   0  0  0  0  0  0  0  0  0  0  0  0
   -3.6987   12.5799  -10.8351 C   0  0  0  0  0  0  0  0  0  0  0  0
   -2.1930   12.9387  -10.9658 C   0  0  2  0  0  0  0  0  0  0  0  0
   -2.1862   14.4653  -10.9438 C   0  0  0  0  0  0  0  0  0  0  0  0
   -3.5086   14.9068  -11.5988 C   0  0  0  0  0  0  0  0  0  0  0  0
   -1.6500   12.4417  -12.1854 O   0  0  0  0  0  0  0  0  0  0  0  0
   -6.1130   12.2997   -9.8672 H   0  0  0  0  0  0  0  0  0  0  0  0
   -8.2070   10.1267  -13.8888 H   0  0  0  0  0  0  0  0  0  0  0  0
   -6.8894   12.2377  -14.0929 H   0  0  0  0  0  0  0  0  0  0  0  0
   -6.6683    9.1972   -9.6350 H   0  0  0  0  0  0  0  0  0  0  0  0
   -8.0412    9.6089   -7.2589 H   0  0  0  0  0  0  0  0  0  0  0  0
   -4.8906    8.7807   -8.4969 H   0  0  0  0  0  0  0  0  0  0  0  0
   -2.6603    9.7509   -8.0557 H   0  0  0  0  0  0  0  0  0  0  0  0
   -4.5083   13.2849   -6.4758 H   0  0  0  0  0  0  0  0  0  0  0  0
   -6.3740   12.4529   -7.8236 H   0  0  0  0  0  0  0  0  0  0  0  0
   -6.3646   11.7075   -6.1893 H   0  0  0  0  0  0  0  0  0  0  0  0
   -2.4624   14.1888   -6.1268 H   0  0  0  0  0  0  0  0  0  0  0  0
   -0.6455   10.6216   -7.6310 H   0  0  0  0  0  0  0  0  0  0  0  0
    1.4531   14.3351   -6.0101 H   0  0  0  0  0  0  0  0  0  0  0  0
    0.1793   15.4930   -6.5230 H   0  0  0  0  0  0  0  0  0  0  0  0
    0.1513   14.8037   -4.8645 H   0  0  0  0  0  0  0  0  0  0  0  0
   -4.0045   12.5193   -9.7802 H   0  0  0  0  0  0  0  0  0  0  0  0
   -3.9276   11.6290  -11.3384 H   0  0  0  0  0  0  0  0  0  0  0  0
   -1.6452   12.5495  -10.0949 H   0  0  0  0  0  0  0  0  0  0  0  0
   -2.1318   14.8321   -9.9082 H   0  0  0  0  0  0  0  0  0  0  0  0
   -1.3293   14.8517  -11.5151 H   0  0  0  0  0  0  0  0  0  0  0  0
   -3.3493   15.2019  -12.6464 H   0  0  0  0  0  0  0  0  0  0  0  0
   -3.9607   15.7439  -11.0467 H   0  0  0  0  0  0  0  0  0  0  0  0
   -0.7305   12.6738  -12.2410 H   0  0  0  0  0  0  0  0  0  0  0  0
  1  2  2  0  0  0  0
  1  4  1  0  0  0  0
  1 12  1  0  0  0  0
  2  6  1  0  0  0  0
  3  4  2  0  0  0  0
  3  5  1  0  0  0  0
  5  6  2  0  0  0  0
  5  9  1  0  0  0  0
  6  7  1  0  0  0  0
  7  8  1  0  0  0  0
  7 10  1  0  0  0  0
  8  9  2  0  0  0  0
 10 14  2  0  0  0  0
 11 12  1  0  0  0  0
 11 26  1  0  0  0  0
 11 29  1  0  0  0  0
 12 13  2  0  0  0  0
 14 15  1  0  0  0  0
 14 19  1  0  0  0  0
 15 16  2  0  0  0  0
 16 17  1  0  0  0  0
 17 18  2  0  0  0  0
 17 20  1  0  0  0  0
 18 19  1  0  0  0  0
 20 21  2  0  0  0  0
 20 24  1  0  0  0  0
 21 22  1  0  0  0  0
 22 23  1  0  0  0  0
 22 25  1  0  0  0  0
 23 24  2  0  0  0  0
 26 27  1  0  0  0  0
 27 28  1  0  0  0  0
 27 30  1  0  0  0  0
 28 29  1  0  0  0  0
  2 31  1  0  0  0  0
  3 32  1  0  0  0  0
  4 33  1  0  0  0  0
  7 34  1  0  0  0  0
 10 35  1  0  0  0  0
 15 36  1  0  0  0  0
 16 37  1  0  0  0  0
 18 38  1  0  0  0  0
 19 39  1  0  0  0  0
 19 40  1  0  0  0  0
 21 41  1  0  0  0  0
 24 42  1  0  0  0  0
 25 43  1  0  0  0  0
 25 44  1  0  0  0  0
 25 45  1  0  0  0  0
 26 46  1  0  0  0  0
 26 47  1  0  0  0  0
 27 48  1  0  0  0  0
 28 49  1  0  0  0  0
 28 50  1  0  0  0  0
 29 51  1  0  0  0  0
 29 52  1  0  0  0  0
 30 53  1  0  0  0  0
M  END
> <Name>
30

> <IC50[uM]>
0.003

$$$$
30
  -OEChem-05192314333D
 Structure written by MMmdl.
 53 57  0     1  0  0  0  0  0999 V2000
   -6.3720   12.3564  -12.0094 C   0  0  0  0  0  0  0  0  0  0  0  0
   -6.5328   11.8103  -10.7336 C   0  0  0  0  0  0  0  0  0  0  0  0
   -7.7318   10.5755  -13.0290 C   0  0  0  0  0  0  0  0  0  0  0  0
   -6.9898   11.7633  -13.1279 C   0  0  0  0  0  0  0  0  0  0  0  0
   -7.8210   10.0065  -11.7558 C   0  0  0  0  0  0  0  0  0  0  0  0
   -7.2477   10.6184  -10.6026 C   0  0  0  0  0  0  0  0  0  0  0  0
   -7.6140    9.7458   -9.5136 C   0  0  0  0  0  0  0  0  0  0  0  0
   -8.2690    8.7218   -9.9879 N   0  0  0  0  0  0  0  0  0  0  0  0
   -8.4092    8.8538  -11.2990 N   0  0  0  0  0  0  0  0  0  0  0  0
   -7.3381    9.8926   -8.0280 C   0  0  0  0  0  0  0  0  0  0  0  0
   -4.3458   13.7121  -11.5140 N   0  0  0  0  0  0  0  0  0  0  0  0
   -5.5478   13.6364  -12.1864 C   0  0  0  0  0  0  0  0  0  0  0  0
   -5.9572   14.5395  -12.9136 O   0  0  0  0  0  0  0  0  0  0  0  0
   -5.9581   10.4851   -7.7363 C   0  0  0  0  0  0  0  0  0  0  0  0
   -4.8068    9.7633   -8.0566 C   0  0  0  0  0  0  0  0  0  0  0  0
   -3.5506   10.3101   -7.8085 C   0  0  0  0  0  0  0  0  0  0  0  0
   -3.4405   11.5856   -7.2383 C   0  0  0  0  0  0  0  0  0  0  0  0
   -4.5911   12.3019   -6.9155 C   0  0  0  0  0  0  0  0  0  0  0  0
   -5.8461   11.7538   -7.1583 C   0  0  0  0  0  0  0  0  0  0  0  0
   -2.0993   12.1777   -6.9729 C   0  0  0  0  0  0  0  0  0  0  0  0
   -1.7708   13.4214   -6.4416 C   0  0  0  0  0  0  0  0  0  0  0  0
   -0.4313   13.4856   -6.3949 N   0  0  0  0  0  0  0  0  0  0  0  0
    0.1723   12.4145   -6.8299 N   0  0  0  0  0  0  0  0  0  0  0  0
   -0.8042   11.6008   -7.2039 C   0  0  0  0  0  0  0  0  0  0  0  0
    0.3889   14.5981   -5.9187 C   0  0  0  0  0  0  0  0  0  0  0  0
   -3.6987   12.5799  -10.8351 C   0  0  0  0  0  0  0  0  0  0  0  0
   -2.1930   12.9387  -10.9658 C   0  0  2  0  0  0  0  0  0  0  0  0
   -2.1862   14.4653  -10.9438 C   0  0  0  0  0  0  0  0  0  0  0  0
   -3.5086   14.9068  -11.5988 C   0  0  0  0  0  0  0  0  0  0  0  0
   -1.6500   12.4417  -12.1854 O   0  0  0  0  0  0  0  0  0  0  0  0
   -6.1130   12.2997   -9.8672 H   0  0  0  0  0  0  0  0  0  0  0  0
   -8.2070   10.1267  -13.8888 H   0  0  0  0  0  0  0  0  0  0  0  0
   -6.8894   12.2377  -14.0929 H   0  0  0  0  0  0  0  0  0  0  0  0
   -8.0412    9.6089   -7.2589 H   0  0  0  0  0  0  0  0  0  0  0  0
   -4.8906    8.7807   -8.4969 H   0  0  0  0  0  0  0  0  0  0  0  0
   -3.0296    9.6149   -7.1338 H   0  0  0  0  0  0  0  0  0  0  0  0
   -3.0246   10.3476   -8.7739 H   0  0  0  0  0  0  0  0  0  0  0  0
   -4.5083   13.2849   -6.4758 H   0  0  0  0  0  0  0  0  0  0  0  0
   -6.3740   12.4529   -7.8236 H   0  0  0  0  0  0  0  0  0  0  0  0
   -6.3646   11.7075   -6.1893 H   0  0  0  0  0  0  0  0  0  0  0  0
   -2.4624   14.1888   -6.1268 H   0  0  0  0  0  0  0  0  0  0  0  0
   -0.6455   10.6216   -7.6310 H   0  0  0  0  0  0  0  0  0  0  0  0
    1.4531   14.3351   -6.0101 H   0  0  0  0  0  0  0  0  0  0  0  0
    0.1793   15.4930   -6.5230 H   0  0  0  0  0  0  0  0  0  0  0  0
    0.1513   14.8037   -4.8645 H   0  0  0  0  0  0  0  0  0  0  0  0
   -4.0045   12.5193   -9.7802 H   0  0  0  0  0  0  0  0  0  0  0  0
   -3.9276   11.6290  -11.3384 H   0  0  0  0  0  0  0  0  0  0  0  0
   -1.6452   12.5495  -10.0949 H   0  0  0  0  0  0  0  0  0  0  0  0
   -2.1318   14.8321   -9.9082 H   0  0  0  0  0  0  0  0  0  0  0  0
   -1.3293   14.8517  -11.5151 H   0  0  0  0  0  0  0  0  0  0  0  0
   -3.3493   15.2019  -12.6464 H   0  0  0  0  0  0  0  0  0  0  0  0
   -3.9607   15.7439  -11.0467 H   0  0  0  0  0  0  0  0  0  0  0  0
   -0.7305   12.6738  -12.2410 H   0  0  0  0  0  0  0  0  0  0  0  0
  1  2  2  0  0  0  0
  1  4  1  0  0  0  0
  1 12  1  0  0  0  0
  2  6  1  0  0  0  0
  3  4  2  0  0  0  0
  3  5  1  0  0  0  0
  5  6  2  0  0  0  0
  5  9  1  0  0  0  0
  6  7  1  0  0  0  0
  7  8  1  0  0  0  0
  7 10  2  0  0  0  0
  8  9  2  0  0  0  0
 10 14  1  0  0  0  0
 11 12  1  0  0  0  0
 11 26  1  0  0  0  0
 11 29  1  0  0  0  0
 12 13  2  0  0  0  0
 14 15  2  0  0  0  0
 14 19  1  0  0  0  0
 15 16  1  0  0  0  0
 16 17  1  0  0  0  0
 17 18  2  0  0  0  0
 17 20  1  0  0  0  0
 18 19  1  0  0  0  0
 20 21  2  0  0  0  0
 20 24  1  0  0  0  0
 21 22  1  0  0  0  0
 22 23  1  0  0  0  0
 22 25  1  0  0  0  0
 23 24  2  0  0  0  0
 26 27  1  0  0  0  0
 27 28  1  0  0  0  0
 27 30  1  0  0  0  0
 28 29  1  0  0  0  0
  2 31  1  0  0  0  0
  3 32  1  0  0  0  0
  4 33  1  0  0  0  0
 10 34  1  0  0  0  0
 15 35  1  0  0  0  0
 16 36  1  0  0  0  0
 16 37  1  0  0  0  0
 18 38  1  0  0  0  0
 19 39  1  0  0  0  0
 19 40  1  0  0  0  0
 21 41  1  0  0  0  0
 24 42  1  0  0  0  0
 25 43  1  0  0  0  0
 25 44  1  0  0  0  0
 25 45  1  0  0  0  0
 26 46  1  0  0  0  0
 26 47  1  0  0  0  0
 27 48  1  0  0  0  0
 28 49  1  0  0  0  0
 28 50  1  0  0  0  0
 29 51  1  0  0  0  0
 29 52  1  0  0  0  0
 30 53  1  0  0  0  0
M  END
> <Name>
30

> <IC50[uM]>
0.003

$$$$
30
  -OEChem-05192314333D
 Structure written by MMmdl.
 53 57  0     1  0  0  0  0  0999 V2000
   -6.3720   12.3564  -12.0094 C   0  0  0  0  0  0  0  0  0  0  0  0
   -6.5328   11.8103  -10.7336 C   0  0  0  0  0  0  0  0  0  0  0  0
   -7.7318   10.5755  -13.0290 C   0  0  0  0  0  0  0  0  0  0  0  0
   -6.9898   11.7633  -13.1279 C   0  0  0  0  0  0  0  0  0  0  0  0
   -7.8210   10.0065  -11.7558 C   0  0  0  0  0  0  0  0  0  0  0  0
   -7.2477   10.6184  -10.6026 C   0  0  0  0  0  0  0  0  0  0  0  0
   -7.6140    9.7458   -9.5136 C   0  0  0  0  0  0  0  0  0  0  0  0
   -8.2690    8.7218   -9.9879 N   0  0  0  0  0  0  0  0  0  0  0  0
   -8.4092    8.8538  -11.2990 N   0  0  0  0  0  0  0  0  0  0  0  0
   -7.3381    9.8926   -8.0280 C   0  0  0  0  0  0  0  0  0  0  0  0
   -4.3458   13.7121  -11.5140 N   0  0  0  0  0  0  0  0  0  0  0  0
   -5.5478   13.6364  -12.1864 C   0  0  0  0  0  0  0  0  0  0  0  0
   -5.9572   14.5395  -12.9136 O   0  0  0  0  0  0  0  0  0  0  0  0
   -5.9581   10.4851   -7.7363 C   0  0  0  0  0  0  0  0  0  0  0  0
   -4.8068    9.7633   -8.0566 C   0  0  0  0  0  0  0  0  0  0  0  0
   -3.5506   10.3101   -7.8085 C   0  0  0  0  0  0  0  0  0  0  0  0
   -3.4405   11.5856   -7.2383 C   0  0  0  0  0  0  0  0  0  0  0  0
   -4.5911   12.3019   -6.9155 C   0  0  0  0  0  0  0  0  0  0  0  0
   -5.8461   11.7538   -7.1583 C   0  0  0  0  0  0  0  0  0  0  0  0
   -2.0993   12.1777   -6.9729 C   0  0  0  0  0  0  0  0  0  0  0  0
   -1.7708   13.4214   -6.4416 C   0  0  0  0  0  0  0  0  0  0  0  0
   -0.4313   13.4856   -6.3949 N   0  0  0  0  0  0  0  0  0  0  0  0
    0.1723   12.4145   -6.8299 N   0  0  0  0  0  0  0  0  0  0  0  0
   -0.8042   11.6008   -7.2039 C   0  0  0  0  0  0  0  0  0  0  0  0
    0.3889   14.5981   -5.9187 C   0  0  0  0  0  0  0  0  0  0  0  0
   -3.6987   12.5799  -10.8351 C   0  0  0  0  0  0  0  0  0  0  0  0
   -2.1930   12.9387  -10.9658 C   0  0  2  0  0  0  0  0  0  0  0  0
   -2.1862   14.4653  -10.9438 C   0  0  0  0  0  0  0  0  0  0  0  0
   -3.5086   14.9068  -11.5988 C   0  0  0  0  0  0  0  0  0  0  0  0
   -1.6500   12.4417  -12.1854 O   0  0  0  0  0  0  0  0  0  0  0  0
   -6.1130   12.2997   -9.8672 H   0  0  0  0  0  0  0  0  0  0  0  0
   -8.2070   10.1267  -13.8888 H   0  0  0  0  0  0  0  0  0  0  0  0
   -6.8894   12.2377  -14.0929 H   0  0  0  0  0  0  0  0  0  0  0  0
   -8.0412    9.6089   -7.2589 H   0  0  0  0  0  0  0  0  0  0  0  0
   -4.8906    8.7807   -8.4969 H   0  0  0  0  0  0  0  0  0  0  0  0
   -2.6603    9.7509   -8.0557 H   0  0  0  0  0  0  0  0  0  0  0  0
   -4.5408   12.5131   -5.8371 H   0  0  0  0  0  0  0  0  0  0  0  0
   -4.5440   13.2468   -7.4767 H   0  0  0  0  0  0  0  0  0  0  0  0
   -6.3740   12.4529   -7.8236 H   0  0  0  0  0  0  0  0  0  0  0  0
   -6.3646   11.7075   -6.1893 H   0  0  0  0  0  0  0  0  0  0  0  0
   -2.4624   14.1888   -6.1268 H   0  0  0  0  0  0  0  0  0  0  0  0
   -0.6455   10.6216   -7.6310 H   0  0  0  0  0  0  0  0  0  0  0  0
    1.4531   14.3351   -6.0101 H   0  0  0  0  0  0  0  0  0  0  0  0
    0.1793   15.4930   -6.5230 H   0  0  0  0  0  0  0  0  0  0  0  0
    0.1513   14.8037   -4.8645 H   0  0  0  0  0  0  0  0  0  0  0  0
   -4.0045   12.5193   -9.7802 H   0  0  0  0  0  0  0  0  0  0  0  0
   -3.9276   11.6290  -11.3384 H   0  0  0  0  0  0  0  0  0  0  0  0
   -1.6452   12.5495  -10.0949 H   0  0  0  0  0  0  0  0  0  0  0  0
   -2.1318   14.8321   -9.9082 H   0  0  0  0  0  0  0  0  0  0  0  0
   -1.3293   14.8517  -11.5151 H   0  0  0  0  0  0  0  0  0  0  0  0
   -3.3493   15.2019  -12.6464 H   0  0  0  0  0  0  0  0  0  0  0  0
   -3.9607   15.7439  -11.0467 H   0  0  0  0  0  0  0  0  0  0  0  0
   -0.7305   12.6738  -12.2410 H   0  0  0  0  0  0  0  0  0  0  0  0
  1  2  2  0  0  0  0
  1  4  1  0  0  0  0
  1 12  1  0  0  0  0
  2  6  1  0  0  0  0
  3  4  2  0  0  0  0
  3  5  1  0  0  0  0
  5  6  2  0  0  0  0
  5  9  1  0  0  0  0
  6  7  1  0  0  0  0
  7  8  1  0  0  0  0
  7 10  2  0  0  0  0
  8  9  2  0  0  0  0
 10 14  1  0  0  0  0
 11 12  1  0  0  0  0
 11 26  1  0  0  0  0
 11 29  1  0  0  0  0
 12 13  2  0  0  0  0
 14 15  2  0  0  0  0
 14 19  1  0  0  0  0
 15 16  1  0  0  0  0
 16 17  2  0  0  0  0
 17 18  1  0  0  0  0
 17 20  1  0  0  0  0
 18 19  1  0  0  0  0
 20 21  2  0  0  0  0
 20 24  1  0  0  0  0
 21 22  1  0  0  0  0
 22 23  1  0  0  0  0
 22 25  1  0  0  0  0
 23 24  2  0  0  0  0
 26 27  1  0  0  0  0
 27 28  1  0  0  0  0
 27 30  1  0  0  0  0
 28 29  1  0  0  0  0
  2 31  1  0  0  0  0
  3 32  1  0  0  0  0
  4 33  1  0  0  0  0
 10 34  1  0  0  0  0
 15 35  1  0  0  0  0
 16 36  1  0  0  0  0
 18 37  1  0  0  0  0
 18 38  1  0  0  0  0
 19 39  1  0  0  0  0
 19 40  1  0  0  0  0
 21 41  1  0  0  0  0
 24 42  1  0  0  0  0
 25 43  1  0  0  0  0
 25 44  1  0  0  0  0
 25 45  1  0  0  0  0
 26 46  1  0  0  0  0
 26 47  1  0  0  0  0
 27 48  1  0  0  0  0
 28 49  1  0  0  0  0
 28 50  1  0  0  0  0
 29 51  1  0  0  0  0
 29 52  1  0  0  0  0
 30 53  1  0  0  0  0
M  END
> <Name>
30

> <IC50[uM]>
0.003

$$$$
30
  -OEChem-05192314333D
 Structure written by MMmdl.
 53 57  0     1  0  0  0  0  0999 V2000
   -6.3720   12.3564  -12.0094 C   0  0  0  0  0  0  0  0  0  0  0  0
   -6.5328   11.8103  -10.7336 C   0  0  0  0  0  0  0  0  0  0  0  0
   -7.7318   10.5755  -13.0290 C   0  0  0  0  0  0  0  0  0  0  0  0
   -6.9898   11.7633  -13.1279 C   0  0  0  0  0  0  0  0  0  0  0  0
   -7.8210   10.0065  -11.7558 C   0  0  0  0  0  0  0  0  0  0  0  0
   -7.2477   10.6184  -10.6026 C   0  0  0  0  0  0  0  0  0  0  0  0
   -7.6140    9.7458   -9.5136 C   0  0  0  0  0  0  0  0  0  0  0  0
   -8.2690    8.7218   -9.9879 N   0  0  0  0  0  0  0  0  0  0  0  0
   -8.4092    8.8538  -11.2990 N   0  0  0  0  0  0  0  0  0  0  0  0
   -7.3381    9.8926   -8.0280 C   0  0  0  0  0  0  0  0  0  0  0  0
   -4.3458   13.7121  -11.5140 N   0  0  0  0  0  0  0  0  0  0  0  0
   -5.5478   13.6364  -12.1864 C   0  0  0  0  0  0  0  0  0  0  0  0
   -5.9572   14.5395  -12.9136 O   0  0  0  0  0  0  0  0  0  0  0  0
   -5.9581   10.4851   -7.7363 C   0  0  0  0  0  0  0  0  0  0  0  0
   -4.8068    9.7633   -8.0566 C   0  0  0  0  0  0  0  0  0  0  0  0
   -3.5506   10.3101   -7.8085 C   0  0  0  0  0  0  0  0  0  0  0  0
   -3.4405   11.5856   -7.2383 C   0  0  0  0  0  0  0  0  0  0  0  0
   -4.5911   12.3019   -6.9155 C   0  0  0  0  0  0  0  0  0  0  0  0
   -5.8461   11.7538   -7.1583 C   0  0  0  0  0  0  0  0  0  0  0  0
   -2.0993   12.1777   -6.9729 C   0  0  0  0  0  0  0  0  0  0  0  0
   -1.7708   13.4214   -6.4416 C   0  0  0  0  0  0  0  0  0  0  0  0
   -0.4313   13.4856   -6.3949 N   0  0  0  0  0  0  0  0  0  0  0  0
    0.1723   12.4145   -6.8299 N   0  0  0  0  0  0  0  0  0  0  0  0
   -0.8042   11.6008   -7.2039 C   0  0  0  0  0  0  0  0  0  0  0  0
    0.3889   14.5981   -5.9187 C   0  0  0  0  0  0  0  0  0  0  0  0
   -3.6987   12.5799  -10.8351 C   0  0  0  0  0  0  0  0  0  0  0  0
   -2.1930   12.9387  -10.9658 C   0  0  2  0  0  0  0  0  0  0  0  0
   -2.1862   14.4653  -10.9438 C   0  0  0  0  0  0  0  0  0  0  0  0
   -3.5086   14.9068  -11.5988 C   0  0  0  0  0  0  0  0  0  0  0  0
   -1.6500   12.4417  -12.1854 O   0  0  0  0  0  0  0  0  0  0  0  0
   -5.4723   11.7440  -12.1691 H   0  0  0  0  0  0  0  0  0  0  0  0
   -5.5260   11.6309  -10.3284 H   0  0  0  0  0  0  0  0  0  0  0  0
   -7.0459   12.5654  -10.1199 H   0  0  0  0  0  0  0  0  0  0  0  0
   -8.2070   10.1267  -13.8888 H   0  0  0  0  0  0  0  0  0  0  0  0
   -6.8894   12.2377  -14.0929 H   0  0  0  0  0  0  0  0  0  0  0  0
   -8.0412    9.6089   -7.2589 H   0  0  0  0  0  0  0  0  0  0  0  0
   -4.8906    8.7807   -8.4969 H   0  0  0  0  0  0  0  0  0  0  0  0
   -2.6603    9.7509   -8.0557 H   0  0  0  0  0  0  0  0  0  0  0  0
   -4.5083   13.2849   -6.4758 H   0  0  0  0  0  0  0  0  0  0  0  0
   -6.7358   12.3089   -6.9000 H   0  0  0  0  0  0  0  0  0  0  0  0
   -2.4624   14.1888   -6.1268 H   0  0  0  0  0  0  0  0  0  0  0  0
   -0.6455   10.6216   -7.6310 H   0  0  0  0  0  0  0  0  0  0  0  0
    1.4531   14.3351   -6.0101 H   0  0  0  0  0  0  0  0  0  0  0  0
    0.1793   15.4930   -6.5230 H   0  0  0  0  0  0  0  0  0  0  0  0
    0.1513   14.8037   -4.8645 H   0  0  0  0  0  0  0  0  0  0  0  0
   -4.0045   12.5193   -9.7802 H   0  0  0  0  0  0  0  0  0  0  0  0
   -3.9276   11.6290  -11.3384 H   0  0  0  0  0  0  0  0  0  0  0  0
   -1.6452   12.5495  -10.0949 H   0  0  0  0  0  0  0  0  0  0  0  0
   -2.1318   14.8321   -9.9082 H   0  0  0  0  0  0  0  0  0  0  0  0
   -1.3293   14.8517  -11.5151 H   0  0  0  0  0  0  0  0  0  0  0  0
   -3.3493   15.2019  -12.6464 H   0  0  0  0  0  0  0  0  0  0  0  0
   -3.9607   15.7439  -11.0467 H   0  0  0  0  0  0  0  0  0  0  0  0
   -0.7305   12.6738  -12.2410 H   0  0  0  0  0  0  0  0  0  0  0  0
  1  2  1  0  0  0  0
  1  4  1  0  0  0  0
  1 12  1  0  0  0  0
  2  6  1  0  0  0  0
  3  4  2  0  0  0  0
  3  5  1  0  0  0  0
  5  6  2  0  0  0  0
  5  9  1  0  0  0  0
  6  7  1  0  0  0  0
  7  8  1  0  0  0  0
  7 10  2  0  0  0  0
  8  9  2  0  0  0  0
 10 14  1  0  0  0  0
 11 12  1  0  0  0  0
 11 26  1  0  0  0  0
 11 29  1  0  0  0  0
 12 13  2  0  0  0  0
 14 15  2  0  0  0  0
 14 19  1  0  0  0  0
 15 16  1  0  0  0  0
 16 17  2  0  0  0  0
 17 18  1  0  0  0  0
 17 20  1  0  0  0  0
 18 19  2  0  0  0  0
 20 21  2  0  0  0  0
 20 24  1  0  0  0  0
 21 22  1  0  0  0  0
 22 23  1  0  0  0  0
 22 25  1  0  0  0  0
 23 24  2  0  0  0  0
 26 27  1  0  0  0  0
 27 28  1  0  0  0  0
 27 30  1  0  0  0  0
 28 29  1  0  0  0  0
  1 31  1  0  0  0  0
  2 32  1  0  0  0  0
  2 33  1  0  0  0  0
  3 34  1  0  0  0  0
  4 35  1  0  0  0  0
 10 36  1  0  0  0  0
 15 37  1  0  0  0  0
 16 38  1  0  0  0  0
 18 39  1  0  0  0  0
 19 40  1  0  0  0  0
 21 41  1  0  0  0  0
 24 42  1  0  0  0  0
 25 43  1  0  0  0  0
 25 44  1  0  0  0  0
 25 45  1  0  0  0  0
 26 46  1  0  0  0  0
 26 47  1  0  0  0  0
 27 48  1  0  0  0  0
 28 49  1  0  0  0  0
 28 50  1  0  0  0  0
 29 51  1  0  0  0  0
 29 52  1  0  0  0  0
 30 53  1  0  0  0  0
M  END
> <Name>
30

> <IC50[uM]>
0.003

$$$$
30
  -OEChem-05192314333D
 Structure written by MMmdl.
 53 57  0     1  0  0  0  0  0999 V2000
   -6.3720   12.3564  -12.0094 C   0  0  0  0  0  0  0  0  0  0  0  0
   -6.5328   11.8103  -10.7336 C   0  0  0  0  0  0  0  0  0  0  0  0
   -7.7318   10.5755  -13.0290 C   0  0  0  0  0  0  0  0  0  0  0  0
   -6.9898   11.7633  -13.1279 C   0  0  0  0  0  0  0  0  0  0  0  0
   -7.8210   10.0065  -11.7558 C   0  0  0  0  0  0  0  0  0  0  0  0
   -7.2477   10.6184  -10.6026 C   0  0  0  0  0  0  0  0  0  0  0  0
   -7.6140    9.7458   -9.5136 C   0  0  0  0  0  0  0  0  0  0  0  0
   -8.2690    8.7218   -9.9879 N   0  0  0  0  0  0  0  0  0  0  0  0
   -8.4092    8.8538  -11.2990 N   0  0  0  0  0  0  0  0  0  0  0  0
   -7.3381    9.8926   -8.0280 C   0  0  0  0  0  0  0  0  0  0  0  0
   -4.3458   13.7121  -11.5140 N   0  0  0  0  0  0  0  0  0  0  0  0
   -5.5478   13.6364  -12.1864 C   0  0  0  0  0  0  0  0  0  0  0  0
   -5.9572   14.5395  -12.9136 O   0  0  0  0  0  0  0  0  0  0  0  0
   -5.9581   10.4851   -7.7363 C   0  0  0  0  0  0  0  0  0  0  0  0
   -4.8068    9.7633   -8.0566 C   0  0  0  0  0  0  0  0  0  0  0  0
   -3.5506   10.3101   -7.8085 C   0  0  0  0  0  0  0  0  0  0  0  0
   -3.4405   11.5856   -7.2383 C   0  0  0  0  0  0  0  0  0  0  0  0
   -4.5911   12.3019   -6.9155 C   0  0  0  0  0  0  0  0  0  0  0  0
   -5.8461   11.7538   -7.1583 C   0  0  0  0  0  0  0  0  0  0  0  0
   -2.0993   12.1777   -6.9729 C   0  0  0  0  0  0  0  0  0  0  0  0
   -1.7708   13.4214   -6.4416 C   0  0  0  0  0  0  0  0  0  0  0  0
   -0.4313   13.4856   -6.3949 N   0  0  0  0  0  0  0  0  0  0  0  0
    0.1723   12.4145   -6.8299 N   0  0  0  0  0  0  0  0  0  0  0  0
   -0.8042   11.6008   -7.2039 C   0  0  0  0  0  0  0  0  0  0  0  0
    0.3889   14.5981   -5.9187 C   0  0  0  0  0  0  0  0  0  0  0  0
   -3.6987   12.5799  -10.8351 C   0  0  0  0  0  0  0  0  0  0  0  0
   -2.1930   12.9387  -10.9658 C   0  0  2  0  0  0  0  0  0  0  0  0
   -2.1862   14.4653  -10.9438 C   0  0  0  0  0  0  0  0  0  0  0  0
   -3.5086   14.9068  -11.5988 C   0  0  0  0  0  0  0  0  0  0  0  0
   -1.6500   12.4417  -12.1854 O   0  0  0  0  0  0  0  0  0  0  0  0
   -5.5260   11.6309  -10.3284 H   0  0  0  0  0  0  0  0  0  0  0  0
   -7.0459   12.5654  -10.1199 H   0  0  0  0  0  0  0  0  0  0  0  0
   -8.2070   10.1267  -13.8888 H   0  0  0  0  0  0  0  0  0  0  0  0
   -6.8894   12.2377  -14.0929 H   0  0  0  0  0  0  0  0  0  0  0  0
   -6.3222   10.0437  -10.7549 H   0  0  0  0  0  0  0  0  0  0  0  0
   -8.0412    9.6089   -7.2589 H   0  0  0  0  0  0  0  0  0  0  0  0
   -4.8906    8.7807   -8.4969 H   0  0  0  0  0  0  0  0  0  0  0  0
   -2.6603    9.7509   -8.0557 H   0  0  0  0  0  0  0  0  0  0  0  0
   -4.5083   13.2849   -6.4758 H   0  0  0  0  0  0  0  0  0  0  0  0
   -6.7358   12.3089   -6.9000 H   0  0  0  0  0  0  0  0  0  0  0  0
   -2.4624   14.1888   -6.1268 H   0  0  0  0  0  0  0  0  0  0  0  0
   -0.6455   10.6216   -7.6310 H   0  0  0  0  0  0  0  0  0  0  0  0
    1.4531   14.3351   -6.0101 H   0  0  0  0  0  0  0  0  0  0  0  0
    0.1793   15.4930   -6.5230 H   0  0  0  0  0  0  0  0  0  0  0  0
    0.1513   14.8037   -4.8645 H   0  0  0  0  0  0  0  0  0  0  0  0
   -4.0045   12.5193   -9.7802 H   0  0  0  0  0  0  0  0  0  0  0  0
   -3.9276   11.6290  -11.3384 H   0  0  0  0  0  0  0  0  0  0  0  0
   -1.6452   12.5495  -10.0949 H   0  0  0  0  0  0  0  0  0  0  0  0
   -2.1318   14.8321   -9.9082 H   0  0  0  0  0  0  0  0  0  0  0  0
   -1.3293   14.8517  -11.5151 H   0  0  0  0  0  0  0  0  0  0  0  0
   -3.3493   15.2019  -12.6464 H   0  0  0  0  0  0  0  0  0  0  0  0
   -3.9607   15.7439  -11.0467 H   0  0  0  0  0  0  0  0  0  0  0  0
   -0.7305   12.6738  -12.2410 H   0  0  0  0  0  0  0  0  0  0  0  0
  1  2  1  0  0  0  0
  1  4  2  0  0  0  0
  1 12  1  0  0  0  0
  2  6  1  0  0  0  0
  3  4  1  0  0  0  0
  3  5  2  0  0  0  0
  5  6  1  0  0  0  0
  5  9  1  0  0  0  0
  6  7  1  0  0  0  0
  7  8  1  0  0  0  0
  7 10  2  0  0  0  0
  8  9  2  0  0  0  0
 10 14  1  0  0  0  0
 11 12  1  0  0  0  0
 11 26  1  0  0  0  0
 11 29  1  0  0  0  0
 12 13  2  0  0  0  0
 14 15  2  0  0  0  0
 14 19  1  0  0  0  0
 15 16  1  0  0  0  0
 16 17  2  0  0  0  0
 17 18  1  0  0  0  0
 17 20  1  0  0  0  0
 18 19  2  0  0  0  0
 20 21  2  0  0  0  0
 20 24  1  0  0  0  0
 21 22  1  0  0  0  0
 22 23  1  0  0  0  0
 22 25  1  0  0  0  0
 23 24  2  0  0  0  0
 26 27  1  0  0  0  0
 27 28  1  0  0  0  0
 27 30  1  0  0  0  0
 28 29  1  0  0  0  0
  2 31  1  0  0  0  0
  2 32  1  0  0  0  0
  3 33  1  0  0  0  0
  4 34  1  0  0  0  0
  6 35  1  0  0  0  0
 10 36  1  0  0  0  0
 15 37  1  0  0  0  0
 16 38  1  0  0  0  0
 18 39  1  0  0  0  0
 19 40  1  0  0  0  0
 21 41  1  0  0  0  0
 24 42  1  0  0  0  0
 25 43  1  0  0  0  0
 25 44  1  0  0  0  0
 25 45  1  0  0  0  0
 26 46  1  0  0  0  0
 26 47  1  0  0  0  0
 27 48  1  0  0  0  0
 28 49  1  0  0  0  0
 28 50  1  0  0  0  0
 29 51  1  0  0  0  0
 29 52  1  0  0  0  0
 30 53  1  0  0  0  0
M  END
> <Name>
30

> <IC50[uM]>
0.003

$$$$
30
  -OEChem-05192314333D
 Structure written by MMmdl.
 53 57  0     1  0  0  0  0  0999 V2000
   -6.3720   12.3564  -12.0094 C   0  0  0  0  0  0  0  0  0  0  0  0
   -6.5328   11.8103  -10.7336 C   0  0  0  0  0  0  0  0  0  0  0  0
   -7.7318   10.5755  -13.0290 C   0  0  0  0  0  0  0  0  0  0  0  0
   -6.9898   11.7633  -13.1279 C   0  0  0  0  0  0  0  0  0  0  0  0
   -7.8210   10.0065  -11.7558 C   0  0  0  0  0  0  0  0  0  0  0  0
   -7.2477   10.6184  -10.6026 C   0  0  0  0  0  0  0  0  0  0  0  0
   -7.6140    9.7458   -9.5136 C   0  0  0  0  0  0  0  0  0  0  0  0
   -8.2690    8.7218   -9.9879 N   0  0  0  0  0  0  0  0  0  0  0  0
   -8.4092    8.8538  -11.2990 N   0  0  0  0  0  0  0  0  0  0  0  0
   -7.3381    9.8926   -8.0280 C   0  0  0  0  0  0  0  0  0  0  0  0
   -4.3458   13.7121  -11.5140 N   0  0  0  0  0  0  0  0  0  0  0  0
   -5.5478   13.6364  -12.1864 C   0  0  0  0  0  0  0  0  0  0  0  0
   -5.9572   14.5395  -12.9136 O   0  0  0  0  0  0  0  0  0  0  0  0
   -5.9581   10.4851   -7.7363 C   0  0  0  0  0  0  0  0  0  0  0  0
   -4.8068    9.7633   -8.0566 C   0  0  0  0  0  0  0  0  0  0  0  0
   -3.5506   10.3101   -7.8085 C   0  0  0  0  0  0  0  0  0  0  0  0
   -3.4405   11.5856   -7.2383 C   0  0  0  0  0  0  0  0  0  0  0  0
   -4.5911   12.3019   -6.9155 C   0  0  0  0  0  0  0  0  0  0  0  0
   -5.8461   11.7538   -7.1583 C   0  0  0  0  0  0  0  0  0  0  0  0
   -2.0993   12.1777   -6.9729 C   0  0  0  0  0  0  0  0  0  0  0  0
   -1.7708   13.4214   -6.4416 C   0  0  0  0  0  0  0  0  0  0  0  0
   -0.4313   13.4856   -6.3949 N   0  0  0  0  0  0  0  0  0  0  0  0
    0.1723   12.4145   -6.8299 N   0  0  0  0  0  0  0  0  0  0  0  0
   -0.8042   11.6008   -7.2039 C   0  0  0  0  0  0  0  0  0  0  0  0
    0.3889   14.5981   -5.9187 C   0  0  0  0  0  0  0  0  0  0  0  0
   -3.6987   12.5799  -10.8351 C   0  0  0  0  0  0  0  0  0  0  0  0
   -2.1930   12.9387  -10.9658 C   0  0  2  0  0  0  0  0  0  0  0  0
   -2.1862   14.4653  -10.9438 C   0  0  0  0  0  0  0  0  0  0  0  0
   -3.5086   14.9068  -11.5988 C   0  0  0  0  0  0  0  0  0  0  0  0
   -1.6500   12.4417  -12.1854 O   0  0  0  0  0  0  0  0  0  0  0  0
   -5.5260   11.6309  -10.3284 H   0  0  0  0  0  0  0  0  0  0  0  0
   -7.0459   12.5654  -10.1199 H   0  0  0  0  0  0  0  0  0  0  0  0
   -8.7545   10.7893  -13.3731 H   0  0  0  0  0  0  0  0  0  0  0  0
   -7.2680    9.8339  -13.6960 H   0  0  0  0  0  0  0  0  0  0  0  0
   -6.8894   12.2377  -14.0929 H   0  0  0  0  0  0  0  0  0  0  0  0
   -8.0412    9.6089   -7.2589 H   0  0  0  0  0  0  0  0  0  0  0  0
   -4.8906    8.7807   -8.4969 H   0  0  0  0  0  0  0  0  0  0  0  0
   -2.6603    9.7509   -8.0557 H   0  0  0  0  0  0  0  0  0  0  0  0
   -4.5083   13.2849   -6.4758 H   0  0  0  0  0  0  0  0  0  0  0  0
   -6.7358   12.3089   -6.9000 H   0  0  0  0  0  0  0  0  0  0  0  0
   -2.4624   14.1888   -6.1268 H   0  0  0  0  0  0  0  0  0  0  0  0
   -0.6455   10.6216   -7.6310 H   0  0  0  0  0  0  0  0  0  0  0  0
    1.4531   14.3351   -6.0101 H   0  0  0  0  0  0  0  0  0  0  0  0
    0.1793   15.4930   -6.5230 H   0  0  0  0  0  0  0  0  0  0  0  0
    0.1513   14.8037   -4.8645 H   0  0  0  0  0  0  0  0  0  0  0  0
   -4.0045   12.5193   -9.7802 H   0  0  0  0  0  0  0  0  0  0  0  0
   -3.9276   11.6290  -11.3384 H   0  0  0  0  0  0  0  0  0  0  0  0
   -1.6452   12.5495  -10.0949 H   0  0  0  0  0  0  0  0  0  0  0  0
   -2.1318   14.8321   -9.9082 H   0  0  0  0  0  0  0  0  0  0  0  0
   -1.3293   14.8517  -11.5151 H   0  0  0  0  0  0  0  0  0  0  0  0
   -3.3493   15.2019  -12.6464 H   0  0  0  0  0  0  0  0  0  0  0  0
   -3.9607   15.7439  -11.0467 H   0  0  0  0  0  0  0  0  0  0  0  0
   -0.7305   12.6738  -12.2410 H   0  0  0  0  0  0  0  0  0  0  0  0
  1  2  1  0  0  0  0
  1  4  2  0  0  0  0
  1 12  1  0  0  0  0
  2  6  1  0  0  0  0
  3  4  1  0  0  0  0
  3  5  1  0  0  0  0
  5  6  2  0  0  0  0
  5  9  1  0  0  0  0
  6  7  1  0  0  0  0
  7  8  1  0  0  0  0
  7 10  2  0  0  0  0
  8  9  2  0  0  0  0
 10 14  1  0  0  0  0
 11 12  1  0  0  0  0
 11 26  1  0  0  0  0
 11 29  1  0  0  0  0
 12 13  2  0  0  0  0
 14 15  2  0  0  0  0
 14 19  1  0  0  0  0
 15 16  1  0  0  0  0
 16 17  2  0  0  0  0
 17 18  1  0  0  0  0
 17 20  1  0  0  0  0
 18 19  2  0  0  0  0
 20 21  2  0  0  0  0
 20 24  1  0  0  0  0
 21 22  1  0  0  0  0
 22 23  1  0  0  0  0
 22 25  1  0  0  0  0
 23 24  2  0  0  0  0
 26 27  1  0  0  0  0
 27 28  1  0  0  0  0
 27 30  1  0  0  0  0
 28 29  1  0  0  0  0
  2 31  1  0  0  0  0
  2 32  1  0  0  0  0
  3 33  1  0  0  0  0
  3 34  1  0  0  0  0
  4 35  1  0  0  0  0
 10 36  1  0  0  0  0
 15 37  1  0  0  0  0
 16 38  1  0  0  0  0
 18 39  1  0  0  0  0
 19 40  1  0  0  0  0
 21 41  1  0  0  0  0
 24 42  1  0  0  0  0
 25 43  1  0  0  0  0
 25 44  1  0  0  0  0
 25 45  1  0  0  0  0
 26 46  1  0  0  0  0
 26 47  1  0  0  0  0
 27 48  1  0  0  0  0
 28 49  1  0  0  0  0
 28 50  1  0  0  0  0
 29 51  1  0  0  0  0
 29 52  1  0  0  0  0
 30 53  1  0  0  0  0
M  END
> <Name>
30

> <IC50[uM]>
0.003

$$$$
30
  -OEChem-05192314333D
 Structure written by MMmdl.
 53 57  0     1  0  0  0  0  0999 V2000
   -6.3720   12.3564  -12.0094 C   0  0  0  0  0  0  0  0  0  0  0  0
   -6.5328   11.8103  -10.7336 C   0  0  0  0  0  0  0  0  0  0  0  0
   -7.7318   10.5755  -13.0290 C   0  0  0  0  0  0  0  0  0  0  0  0
   -6.9898   11.7633  -13.1279 C   0  0  0  0  0  0  0  0  0  0  0  0
   -7.8210   10.0065  -11.7558 C   0  0  0  0  0  0  0  0  0  0  0  0
   -7.2477   10.6184  -10.6026 C   0  0  0  0  0  0  0  0  0  0  0  0
   -7.6140    9.7458   -9.5136 C   0  0  0  0  0  0  0  0  0  0  0  0
   -8.2690    8.7218   -9.9879 N   0  0  0  0  0  0  0  0  0  0  0  0
   -8.4092    8.8538  -11.2990 N   0  0  0  0  0  0  0  0  0  0  0  0
   -7.3381    9.8926   -8.0280 C   0  0  0  0  0  0  0  0  0  0  0  0
   -4.3458   13.7121  -11.5140 N   0  0  0  0  0  0  0  0  0  0  0  0
   -5.5478   13.6364  -12.1864 C   0  0  0  0  0  0  0  0  0  0  0  0
   -5.9572   14.5395  -12.9136 O   0  0  0  0  0  0  0  0  0  0  0  0
   -5.9581   10.4851   -7.7363 C   0  0  0  0  0  0  0  0  0  0  0  0
   -4.8068    9.7633   -8.0566 C   0  0  0  0  0  0  0  0  0  0  0  0
   -3.5506   10.3101   -7.8085 C   0  0  0  0  0  0  0  0  0  0  0  0
   -3.4405   11.5856   -7.2383 C   0  0  0  0  0  0  0  0  0  0  0  0
   -4.5911   12.3019   -6.9155 C   0  0  0  0  0  0  0  0  0  0  0  0
   -5.8461   11.7538   -7.1583 C   0  0  0  0  0  0  0  0  0  0  0  0
   -2.0993   12.1777   -6.9729 C   0  0  0  0  0  0  0  0  0  0  0  0
   -1.7708   13.4214   -6.4416 C   0  0  0  0  0  0  0  0  0  0  0  0
   -0.4313   13.4856   -6.3949 N   0  0  0  0  0  0  0  0  0  0  0  0
    0.1723   12.4145   -6.8299 N   0  0  0  0  0  0  0  0  0  0  0  0
   -0.8042   11.6008   -7.2039 C   0  0  0  0  0  0  0  0  0  0  0  0
    0.3889   14.5981   -5.9187 C   0  0  0  0  0  0  0  0  0  0  0  0
   -3.6987   12.5799  -10.8351 C   0  0  0  0  0  0  0  0  0  0  0  0
   -2.1930   12.9387  -10.9658 C   0  0  2  0  0  0  0  0  0  0  0  0
   -2.1862   14.4653  -10.9438 C   0  0  0  0  0  0  0  0  0  0  0  0
   -3.5086   14.9068  -11.5988 C   0  0  0  0  0  0  0  0  0  0  0  0
   -1.6500   12.4417  -12.1854 O   0  0  0  0  0  0  0  0  0  0  0  0
   -6.1130   12.2997   -9.8672 H   0  0  0  0  0  0  0  0  0  0  0  0
   -8.2070   10.1267  -13.8888 H   0  0  0  0  0  0  0  0  0  0  0  0
   -6.8894   12.2377  -14.0929 H   0  0  0  0  0  0  0  0  0  0  0  0
   -6.8834    9.4593  -11.9332 H   0  0  0  0  0  0  0  0  0  0  0  0
   -8.1029   10.5522   -7.5921 H   0  0  0  0  0  0  0  0  0  0  0  0
   -7.4002    8.8994   -7.5593 H   0  0  0  0  0  0  0  0  0  0  0  0
   -4.8906    8.7807   -8.4969 H   0  0  0  0  0  0  0  0  0  0  0  0
   -2.6603    9.7509   -8.0557 H   0  0  0  0  0  0  0  0  0  0  0  0
   -4.5083   13.2849   -6.4758 H   0  0  0  0  0  0  0  0  0  0  0  0
   -6.7358   12.3089   -6.9000 H   0  0  0  0  0  0  0  0  0  0  0  0
   -2.4624   14.1888   -6.1268 H   0  0  0  0  0  0  0  0  0  0  0  0
   -0.6455   10.6216   -7.6310 H   0  0  0  0  0  0  0  0  0  0  0  0
    1.4531   14.3351   -6.0101 H   0  0  0  0  0  0  0  0  0  0  0  0
    0.1793   15.4930   -6.5230 H   0  0  0  0  0  0  0  0  0  0  0  0
    0.1513   14.8037   -4.8645 H   0  0  0  0  0  0  0  0  0  0  0  0
   -4.0045   12.5193   -9.7802 H   0  0  0  0  0  0  0  0  0  0  0  0
   -3.9276   11.6290  -11.3384 H   0  0  0  0  0  0  0  0  0  0  0  0
   -1.6452   12.5495  -10.0949 H   0  0  0  0  0  0  0  0  0  0  0  0
   -2.1318   14.8321   -9.9082 H   0  0  0  0  0  0  0  0  0  0  0  0
   -1.3293   14.8517  -11.5151 H   0  0  0  0  0  0  0  0  0  0  0  0
   -3.3493   15.2019  -12.6464 H   0  0  0  0  0  0  0  0  0  0  0  0
   -3.9607   15.7439  -11.0467 H   0  0  0  0  0  0  0  0  0  0  0  0
   -0.7305   12.6738  -12.2410 H   0  0  0  0  0  0  0  0  0  0  0  0
  1  2  2  0  0  0  0
  1  4  1  0  0  0  0
  1 12  1  0  0  0  0
  2  6  1  0  0  0  0
  3  4  2  0  0  0  0
  3  5  1  0  0  0  0
  5  6  1  0  0  0  0
  5  9  1  0  0  0  0
  6  7  2  0  0  0  0
  7  8  1  0  0  0  0
  7 10  1  0  0  0  0
  8  9  2  0  0  0  0
 10 14  1  0  0  0  0
 11 12  1  0  0  0  0
 11 26  1  0  0  0  0
 11 29  1  0  0  0  0
 12 13  2  0  0  0  0
 14 15  2  0  0  0  0
 14 19  1  0  0  0  0
 15 16  1  0  0  0  0
 16 17  2  0  0  0  0
 17 18  1  0  0  0  0
 17 20  1  0  0  0  0
 18 19  2  0  0  0  0
 20 21  2  0  0  0  0
 20 24  1  0  0  0  0
 21 22  1  0  0  0  0
 22 23  1  0  0  0  0
 22 25  1  0  0  0  0
 23 24  2  0  0  0  0
 26 27  1  0  0  0  0
 27 28  1  0  0  0  0
 27 30  1  0  0  0  0
 28 29  1  0  0  0  0
  2 31  1  0  0  0  0
  3 32  1  0  0  0  0
  4 33  1  0  0  0  0
  5 34  1  0  0  0  0
 10 35  1  0  0  0  0
 10 36  1  0  0  0  0
 15 37  1  0  0  0  0
 16 38  1  0  0  0  0
 18 39  1  0  0  0  0
 19 40  1  0  0  0  0
 21 41  1  0  0  0  0
 24 42  1  0  0  0  0
 25 43  1  0  0  0  0
 25 44  1  0  0  0  0
 25 45  1  0  0  0  0
 26 46  1  0  0  0  0
 26 47  1  0  0  0  0
 27 48  1  0  0  0  0
 28 49  1  0  0  0  0
 28 50  1  0  0  0  0
 29 51  1  0  0  0  0
 29 52  1  0  0  0  0
 30 53  1  0  0  0  0
M  END
> <Name>
30

> <IC50[uM]>
0.003

$$$$
30
  -OEChem-05192314333D
 Structure written by MMmdl.
 53 57  0     1  0  0  0  0  0999 V2000
   -6.3720   12.3564  -12.0094 C   0  0  0  0  0  0  0  0  0  0  0  0
   -6.5328   11.8103  -10.7336 C   0  0  0  0  0  0  0  0  0  0  0  0
   -7.7318   10.5755  -13.0290 C   0  0  0  0  0  0  0  0  0  0  0  0
   -6.9898   11.7633  -13.1279 C   0  0  0  0  0  0  0  0  0  0  0  0
   -7.8210   10.0065  -11.7558 C   0  0  0  0  0  0  0  0  0  0  0  0
   -7.2477   10.6184  -10.6026 C   0  0  0  0  0  0  0  0  0  0  0  0
   -7.6140    9.7458   -9.5136 C   0  0  0  0  0  0  0  0  0  0  0  0
   -8.2690    8.7218   -9.9879 N   0  0  0  0  0  0  0  0  0  0  0  0
   -8.4092    8.8538  -11.2990 N   0  0  0  0  0  0  0  0  0  0  0  0
   -7.3381    9.8926   -8.0280 C   0  0  0  0  0  0  0  0  0  0  0  0
   -4.3458   13.7121  -11.5140 N   0  0  0  0  0  0  0  0  0  0  0  0
   -5.5478   13.6364  -12.1864 C   0  0  0  0  0  0  0  0  0  0  0  0
   -5.9572   14.5395  -12.9136 O   0  0  0  0  0  0  0  0  0  0  0  0
   -5.9581   10.4851   -7.7363 C   0  0  0  0  0  0  0  0  0  0  0  0
   -4.8068    9.7633   -8.0566 C   0  0  0  0  0  0  0  0  0  0  0  0
   -3.5506   10.3101   -7.8085 C   0  0  0  0  0  0  0  0  0  0  0  0
   -3.4405   11.5856   -7.2383 C   0  0  0  0  0  0  0  0  0  0  0  0
   -4.5911   12.3019   -6.9155 C   0  0  0  0  0  0  0  0  0  0  0  0
   -5.8461   11.7538   -7.1583 C   0  0  0  0  0  0  0  0  0  0  0  0
   -2.0993   12.1777   -6.9729 C   0  0  0  0  0  0  0  0  0  0  0  0
   -1.7708   13.4214   -6.4416 C   0  0  0  0  0  0  0  0  0  0  0  0
   -0.4313   13.4856   -6.3949 N   0  0  0  0  0  0  0  0  0  0  0  0
    0.1723   12.4145   -6.8299 N   0  0  0  0  0  0  0  0  0  0  0  0
   -0.8042   11.6008   -7.2039 C   0  0  0  0  0  0  0  0  0  0  0  0
    0.3889   14.5981   -5.9187 C   0  0  0  0  0  0  0  0  0  0  0  0
   -3.6987   12.5799  -10.8351 C   0  0  0  0  0  0  0  0  0  0  0  0
   -2.1930   12.9387  -10.9658 C   0  0  2  0  0  0  0  0  0  0  0  0
   -2.1862   14.4653  -10.9438 C   0  0  0  0  0  0  0  0  0  0  0  0
   -3.5086   14.9068  -11.5988 C   0  0  0  0  0  0  0  0  0  0  0  0
   -1.6500   12.4417  -12.1854 O   0  0  0  0  0  0  0  0  0  0  0  0
   -6.1130   12.2997   -9.8672 H   0  0  0  0  0  0  0  0  0  0  0  0
   -8.2070   10.1267  -13.8888 H   0  0  0  0  0  0  0  0  0  0  0  0
   -7.6747   12.5202  -13.5378 H   0  0  0  0  0  0  0  0  0  0  0  0
   -6.1868   11.5644  -13.8529 H   0  0  0  0  0  0  0  0  0  0  0  0
   -8.1029   10.5522   -7.5921 H   0  0  0  0  0  0  0  0  0  0  0  0
   -7.4002    8.8994   -7.5593 H   0  0  0  0  0  0  0  0  0  0  0  0
   -4.8906    8.7807   -8.4969 H   0  0  0  0  0  0  0  0  0  0  0  0
   -2.6603    9.7509   -8.0557 H   0  0  0  0  0  0  0  0  0  0  0  0
   -4.5083   13.2849   -6.4758 H   0  0  0  0  0  0  0  0  0  0  0  0
   -6.7358   12.3089   -6.9000 H   0  0  0  0  0  0  0  0  0  0  0  0
   -2.4624   14.1888   -6.1268 H   0  0  0  0  0  0  0  0  0  0  0  0
   -0.6455   10.6216   -7.6310 H   0  0  0  0  0  0  0  0  0  0  0  0
    1.4531   14.3351   -6.0101 H   0  0  0  0  0  0  0  0  0  0  0  0
    0.1793   15.4930   -6.5230 H   0  0  0  0  0  0  0  0  0  0  0  0
    0.1513   14.8037   -4.8645 H   0  0  0  0  0  0  0  0  0  0  0  0
   -4.0045   12.5193   -9.7802 H   0  0  0  0  0  0  0  0  0  0  0  0
   -3.9276   11.6290  -11.3384 H   0  0  0  0  0  0  0  0  0  0  0  0
   -1.6452   12.5495  -10.0949 H   0  0  0  0  0  0  0  0  0  0  0  0
   -2.1318   14.8321   -9.9082 H   0  0  0  0  0  0  0  0  0  0  0  0
   -1.3293   14.8517  -11.5151 H   0  0  0  0  0  0  0  0  0  0  0  0
   -3.3493   15.2019  -12.6464 H   0  0  0  0  0  0  0  0  0  0  0  0
   -3.9607   15.7439  -11.0467 H   0  0  0  0  0  0  0  0  0  0  0  0
   -0.7305   12.6738  -12.2410 H   0  0  0  0  0  0  0  0  0  0  0  0
  1  2  2  0  0  0  0
  1  4  1  0  0  0  0
  1 12  1  0  0  0  0
  2  6  1  0  0  0  0
  3  4  1  0  0  0  0
  3  5  2  0  0  0  0
  5  6  1  0  0  0  0
  5  9  1  0  0  0  0
  6  7  2  0  0  0  0
  7  8  1  0  0  0  0
  7 10  1  0  0  0  0
  8  9  2  0  0  0  0
 10 14  1  0  0  0  0
 11 12  1  0  0  0  0
 11 26  1  0  0  0  0
 11 29  1  0  0  0  0
 12 13  2  0  0  0  0
 14 15  2  0  0  0  0
 14 19  1  0  0  0  0
 15 16  1  0  0  0  0
 16 17  2  0  0  0  0
 17 18  1  0  0  0  0
 17 20  1  0  0  0  0
 18 19  2  0  0  0  0
 20 21  2  0  0  0  0
 20 24  1  0  0  0  0
 21 22  1  0  0  0  0
 22 23  1  0  0  0  0
 22 25  1  0  0  0  0
 23 24  2  0  0  0  0
 26 27  1  0  0  0  0
 27 28  1  0  0  0  0
 27 30  1  0  0  0  0
 28 29  1  0  0  0  0
  2 31  1  0  0  0  0
  3 32  1  0  0  0  0
  4 33  1  0  0  0  0
  4 34  1  0  0  0  0
 10 35  1  0  0  0  0
 10 36  1  0  0  0  0
 15 37  1  0  0  0  0
 16 38  1  0  0  0  0
 18 39  1  0  0  0  0
 19 40  1  0  0  0  0
 21 41  1  0  0  0  0
 24 42  1  0  0  0  0
 25 43  1  0  0  0  0
 25 44  1  0  0  0  0
 25 45  1  0  0  0  0
 26 46  1  0  0  0  0
 26 47  1  0  0  0  0
 27 48  1  0  0  0  0
 28 49  1  0  0  0  0
 28 50  1  0  0  0  0
 29 51  1  0  0  0  0
 29 52  1  0  0  0  0
 30 53  1  0  0  0  0
M  END
> <Name>
30

> <IC50[uM]>
0.003

$$$$
30
  -OEChem-05192314333D
 Structure written by MMmdl.
 53 57  0     1  0  0  0  0  0999 V2000
   -6.3720   12.3564  -12.0094 C   0  0  0  0  0  0  0  0  0  0  0  0
   -6.5328   11.8103  -10.7336 C   0  0  0  0  0  0  0  0  0  0  0  0
   -7.7318   10.5755  -13.0290 C   0  0  0  0  0  0  0  0  0  0  0  0
   -6.9898   11.7633  -13.1279 C   0  0  0  0  0  0  0  0  0  0  0  0
   -7.8210   10.0065  -11.7558 C   0  0  0  0  0  0  0  0  0  0  0  0
   -7.2477   10.6184  -10.6026 C   0  0  0  0  0  0  0  0  0  0  0  0
   -7.6140    9.7458   -9.5136 C   0  0  0  0  0  0  0  0  0  0  0  0
   -8.2690    8.7218   -9.9879 N   0  0  0  0  0  0  0  0  0  0  0  0
   -8.4092    8.8538  -11.2990 N   0  0  0  0  0  0  0  0  0  0  0  0
   -7.3381    9.8926   -8.0280 C   0  0  0  0  0  0  0  0  0  0  0  0
   -4.3458   13.7121  -11.5140 N   0  0  0  0  0  0  0  0  0  0  0  0
   -5.5478   13.6364  -12.1864 C   0  0  0  0  0  0  0  0  0  0  0  0
   -5.9572   14.5395  -12.9136 O   0  0  0  0  0  0  0  0  0  0  0  0
   -5.9581   10.4851   -7.7363 C   0  0  0  0  0  0  0  0  0  0  0  0
   -4.8068    9.7633   -8.0566 C   0  0  0  0  0  0  0  0  0  0  0  0
   -3.5506   10.3101   -7.8085 C   0  0  0  0  0  0  0  0  0  0  0  0
   -3.4405   11.5856   -7.2383 C   0  0  0  0  0  0  0  0  0  0  0  0
   -4.5911   12.3019   -6.9155 C   0  0  0  0  0  0  0  0  0  0  0  0
   -5.8461   11.7538   -7.1583 C   0  0  0  0  0  0  0  0  0  0  0  0
   -2.0993   12.1777   -6.9729 C   0  0  0  0  0  0  0  0  0  0  0  0
   -1.7708   13.4214   -6.4416 C   0  0  0  0  0  0  0  0  0  0  0  0
   -0.4313   13.4856   -6.3949 N   0  0  0  0  0  0  0  0  0  0  0  0
    0.1723   12.4145   -6.8299 N   0  0  0  0  0  0  0  0  0  0  0  0
   -0.8042   11.6008   -7.2039 C   0  0  0  0  0  0  0  0  0  0  0  0
    0.3889   14.5981   -5.9187 C   0  0  0  0  0  0  0  0  0  0  0  0
   -3.6987   12.5799  -10.8351 C   0  0  0  0  0  0  0  0  0  0  0  0
   -2.1930   12.9387  -10.9658 C   0  0  2  0  0  0  0  0  0  0  0  0
   -2.1862   14.4653  -10.9438 C   0  0  0  0  0  0  0  0  0  0  0  0
   -3.5086   14.9068  -11.5988 C   0  0  0  0  0  0  0  0  0  0  0  0
   -1.6500   12.4417  -12.1854 O   0  0  0  0  0  0  0  0  0  0  0  0
   -5.5260   11.6309  -10.3284 H   0  0  0  0  0  0  0  0  0  0  0  0
   -7.0459   12.5654  -10.1199 H   0  0  0  0  0  0  0  0  0  0  0  0
   -8.2070   10.1267  -13.8888 H   0  0  0  0  0  0  0  0  0  0  0  0
   -6.8894   12.2377  -14.0929 H   0  0  0  0  0  0  0  0  0  0  0  0
   -8.1029   10.5522   -7.5921 H   0  0  0  0  0  0  0  0  0  0  0  0
   -7.4002    8.8994   -7.5593 H   0  0  0  0  0  0  0  0  0  0  0  0
   -4.8906    8.7807   -8.4969 H   0  0  0  0  0  0  0  0  0  0  0  0
   -2.6603    9.7509   -8.0557 H   0  0  0  0  0  0  0  0  0  0  0  0
   -4.5083   13.2849   -6.4758 H   0  0  0  0  0  0  0  0  0  0  0  0
   -6.7358   12.3089   -6.9000 H   0  0  0  0  0  0  0  0  0  0  0  0
   -2.4624   14.1888   -6.1268 H   0  0  0  0  0  0  0  0  0  0  0  0
   -0.6455   10.6216   -7.6310 H   0  0  0  0  0  0  0  0  0  0  0  0
    1.4531   14.3351   -6.0101 H   0  0  0  0  0  0  0  0  0  0  0  0
    0.1793   15.4930   -6.5230 H   0  0  0  0  0  0  0  0  0  0  0  0
    0.1513   14.8037   -4.8645 H   0  0  0  0  0  0  0  0  0  0  0  0
   -4.0045   12.5193   -9.7802 H   0  0  0  0  0  0  0  0  0  0  0  0
   -3.9276   11.6290  -11.3384 H   0  0  0  0  0  0  0  0  0  0  0  0
   -1.6452   12.5495  -10.0949 H   0  0  0  0  0  0  0  0  0  0  0  0
   -2.1318   14.8321   -9.9082 H   0  0  0  0  0  0  0  0  0  0  0  0
   -1.3293   14.8517  -11.5151 H   0  0  0  0  0  0  0  0  0  0  0  0
   -3.3493   15.2019  -12.6464 H   0  0  0  0  0  0  0  0  0  0  0  0
   -3.9607   15.7439  -11.0467 H   0  0  0  0  0  0  0  0  0  0  0  0
   -0.7305   12.6738  -12.2410 H   0  0  0  0  0  0  0  0  0  0  0  0
  1  2  1  0  0  0  0
  1  4  2  0  0  0  0
  1 12  1  0  0  0  0
  2  6  1  0  0  0  0
  3  4  1  0  0  0  0
  3  5  2  0  0  0  0
  5  6  1  0  0  0  0
  5  9  1  0  0  0  0
  6  7  2  0  0  0  0
  7  8  1  0  0  0  0
  7 10  1  0  0  0  0
  8  9  2  0  0  0  0
 10 14  1  0  0  0  0
 11 12  1  0  0  0  0
 11 26  1  0  0  0  0
 11 29  1  0  0  0  0
 12 13  2  0  0  0  0
 14 15  2  0  0  0  0
 14 19  1  0  0  0  0
 15 16  1  0  0  0  0
 16 17  2  0  0  0  0
 17 18  1  0  0  0  0
 17 20  1  0  0  0  0
 18 19  2  0  0  0  0
 20 21  2  0  0  0  0
 20 24  1  0  0  0  0
 21 22  1  0  0  0  0
 22 23  1  0  0  0  0
 22 25  1  0  0  0  0
 23 24  2  0  0  0  0
 26 27  1  0  0  0  0
 27 28  1  0  0  0  0
 27 30  1  0  0  0  0
 28 29  1  0  0  0  0
  2 31  1  0  0  0  0
  2 32  1  0  0  0  0
  3 33  1  0  0  0  0
  4 34  1  0  0  0  0
 10 35  1  0  0  0  0
 10 36  1  0  0  0  0
 15 37  1  0  0  0  0
 16 38  1  0  0  0  0
 18 39  1  0  0  0  0
 19 40  1  0  0  0  0
 21 41  1  0  0  0  0
 24 42  1  0  0  0  0
 25 43  1  0  0  0  0
 25 44  1  0  0  0  0
 25 45  1  0  0  0  0
 26 46  1  0  0  0  0
 26 47  1  0  0  0  0
 27 48  1  0  0  0  0
 28 49  1  0  0  0  0
 28 50  1  0  0  0  0
 29 51  1  0  0  0  0
 29 52  1  0  0  0  0
 30 53  1  0  0  0  0
M  END
> <Name>
30

> <IC50[uM]>
0.003

$$$$
30
  -OEChem-05192314333D
 Structure written by MMmdl.
 53 57  0     1  0  0  0  0  0999 V2000
   -6.3720   12.3564  -12.0094 C   0  0  0  0  0  0  0  0  0  0  0  0
   -6.5328   11.8103  -10.7336 C   0  0  0  0  0  0  0  0  0  0  0  0
   -7.7318   10.5755  -13.0290 C   0  0  0  0  0  0  0  0  0  0  0  0
   -6.9898   11.7633  -13.1279 C   0  0  0  0  0  0  0  0  0  0  0  0
   -7.8210   10.0065  -11.7558 C   0  0  0  0  0  0  0  0  0  0  0  0
   -7.2477   10.6184  -10.6026 C   0  0  0  0  0  0  0  0  0  0  0  0
   -7.6140    9.7458   -9.5136 C   0  0  0  0  0  0  0  0  0  0  0  0
   -8.2690    8.7218   -9.9879 N   0  0  0  0  0  0  0  0  0  0  0  0
   -8.4092    8.8538  -11.2990 N   0  0  0  0  0  0  0  0  0  0  0  0
   -7.3381    9.8926   -8.0280 C   0  0  0  0  0  0  0  0  0  0  0  0
   -4.3458   13.7121  -11.5140 N   0  0  0  0  0  0  0  0  0  0  0  0
   -5.5478   13.6364  -12.1864 C   0  0  0  0  0  0  0  0  0  0  0  0
   -5.9572   14.5395  -12.9136 O   0  0  0  0  0  0  0  0  0  0  0  0
   -5.9581   10.4851   -7.7363 C   0  0  0  0  0  0  0  0  0  0  0  0
   -4.8068    9.7633   -8.0566 C   0  0  0  0  0  0  0  0  0  0  0  0
   -3.5506   10.3101   -7.8085 C   0  0  0  0  0  0  0  0  0  0  0  0
   -3.4405   11.5856   -7.2383 C   0  0  0  0  0  0  0  0  0  0  0  0
   -4.5911   12.3019   -6.9155 C   0  0  0  0  0  0  0  0  0  0  0  0
   -5.8461   11.7538   -7.1583 C   0  0  0  0  0  0  0  0  0  0  0  0
   -2.0993   12.1777   -6.9729 C   0  0  0  0  0  0  0  0  0  0  0  0
   -1.7708   13.4214   -6.4416 C   0  0  0  0  0  0  0  0  0  0  0  0
   -0.4313   13.4856   -6.3949 N   0  0  0  0  0  0  0  0  0  0  0  0
    0.1723   12.4145   -6.8299 N   0  0  0  0  0  0  0  0  0  0  0  0
   -0.8042   11.6008   -7.2039 C   0  0  0  0  0  0  0  0  0  0  0  0
    0.3889   14.5981   -5.9187 C   0  0  0  0  0  0  0  0  0  0  0  0
   -3.6987   12.5799  -10.8351 C   0  0  0  0  0  0  0  0  0  0  0  0
   -2.1930   12.9387  -10.9658 C   0  0  2  0  0  0  0  0  0  0  0  0
   -2.1862   14.4653  -10.9438 C   0  0  0  0  0  0  0  0  0  0  0  0
   -3.5086   14.9068  -11.5988 C   0  0  0  0  0  0  0  0  0  0  0  0
   -1.6500   12.4417  -12.1854 O   0  0  0  0  0  0  0  0  0  0  0  0
   -6.1130   12.2997   -9.8672 H   0  0  0  0  0  0  0  0  0  0  0  0
   -8.2070   10.1267  -13.8888 H   0  0  0  0  0  0  0  0  0  0  0  0
   -6.8894   12.2377  -14.0929 H   0  0  0  0  0  0  0  0  0  0  0  0
   -6.3222   10.0437  -10.7549 H   0  0  0  0  0  0  0  0  0  0  0  0
   -8.6124    7.9552   -9.4454 H   0  0  0  0  0  0  0  0  0  0  0  0
   -8.0412    9.6089   -7.2589 H   0  0  0  0  0  0  0  0  0  0  0  0
   -4.8906    8.7807   -8.4969 H   0  0  0  0  0  0  0  0  0  0  0  0
   -2.6603    9.7509   -8.0557 H   0  0  0  0  0  0  0  0  0  0  0  0
   -4.5083   13.2849   -6.4758 H   0  0  0  0  0  0  0  0  0  0  0  0
   -6.7358   12.3089   -6.9000 H   0  0  0  0  0  0  0  0  0  0  0  0
   -2.4624   14.1888   -6.1268 H   0  0  0  0  0  0  0  0  0  0  0  0
   -0.6455   10.6216   -7.6310 H   0  0  0  0  0  0  0  0  0  0  0  0
    1.4531   14.3351   -6.0101 H   0  0  0  0  0  0  0  0  0  0  0  0
    0.1793   15.4930   -6.5230 H   0  0  0  0  0  0  0  0  0  0  0  0
    0.1513   14.8037   -4.8645 H   0  0  0  0  0  0  0  0  0  0  0  0
   -4.0045   12.5193   -9.7802 H   0  0  0  0  0  0  0  0  0  0  0  0
   -3.9276   11.6290  -11.3384 H   0  0  0  0  0  0  0  0  0  0  0  0
   -1.6452   12.5495  -10.0949 H   0  0  0  0  0  0  0  0  0  0  0  0
   -2.1318   14.8321   -9.9082 H   0  0  0  0  0  0  0  0  0  0  0  0
   -1.3293   14.8517  -11.5151 H   0  0  0  0  0  0  0  0  0  0  0  0
   -3.3493   15.2019  -12.6464 H   0  0  0  0  0  0  0  0  0  0  0  0
   -3.9607   15.7439  -11.0467 H   0  0  0  0  0  0  0  0  0  0  0  0
   -0.7305   12.6738  -12.2410 H   0  0  0  0  0  0  0  0  0  0  0  0
  1  2  2  0  0  0  0
  1  4  1  0  0  0  0
  1 12  1  0  0  0  0
  2  6  1  0  0  0  0
  3  4  2  0  0  0  0
  3  5  1  0  0  0  0
  5  6  1  0  0  0  0
  5  9  2  0  0  0  0
  6  7  1  0  0  0  0
  7  8  1  0  0  0  0
  7 10  2  0  0  0  0
  8  9  1  0  0  0  0
 10 14  1  0  0  0  0
 11 12  1  0  0  0  0
 11 26  1  0  0  0  0
 11 29  1  0  0  0  0
 12 13  2  0  0  0  0
 14 15  2  0  0  0  0
 14 19  1  0  0  0  0
 15 16  1  0  0  0  0
 16 17  2  0  0  0  0
 17 18  1  0  0  0  0
 17 20  1  0  0  0  0
 18 19  2  0  0  0  0
 20 21  2  0  0  0  0
 20 24  1  0  0  0  0
 21 22  1  0  0  0  0
 22 23  1  0  0  0  0
 22 25  1  0  0  0  0
 23 24  2  0  0  0  0
 26 27  1  0  0  0  0
 27 28  1  0  0  0  0
 27 30  1  0  0  0  0
 28 29  1  0  0  0  0
  2 31  1  0  0  0  0
  3 32  1  0  0  0  0
  4 33  1  0  0  0  0
  6 34  1  0  0  0  0
  8 35  1  0  0  0  0
 10 36  1  0  0  0  0
 15 37  1  0  0  0  0
 16 38  1  0  0  0  0
 18 39  1  0  0  0  0
 19 40  1  0  0  0  0
 21 41  1  0  0  0  0
 24 42  1  0  0  0  0
 25 43  1  0  0  0  0
 25 44  1  0  0  0  0
 25 45  1  0  0  0  0
 26 46  1  0  0  0  0
 26 47  1  0  0  0  0
 27 48  1  0  0  0  0
 28 49  1  0  0  0  0
 28 50  1  0  0  0  0
 29 51  1  0  0  0  0
 29 52  1  0  0  0  0
 30 53  1  0  0  0  0
M  END
> <Name>
30

> <IC50[uM]>
0.003

$$$$
30
  -OEChem-05192314333D
 Structure written by MMmdl.
 53 57  0     1  0  0  0  0  0999 V2000
   -6.3720   12.3564  -12.0094 C   0  0  0  0  0  0  0  0  0  0  0  0
   -6.5328   11.8103  -10.7336 C   0  0  0  0  0  0  0  0  0  0  0  0
   -7.7318   10.5755  -13.0290 C   0  0  0  0  0  0  0  0  0  0  0  0
   -6.9898   11.7633  -13.1279 C   0  0  0  0  0  0  0  0  0  0  0  0
   -7.8210   10.0065  -11.7558 C   0  0  0  0  0  0  0  0  0  0  0  0
   -7.2477   10.6184  -10.6026 C   0  0  0  0  0  0  0  0  0  0  0  0
   -7.6140    9.7458   -9.5136 C   0  0  0  0  0  0  0  0  0  0  0  0
   -8.2690    8.7218   -9.9879 N   0  0  0  0  0  0  0  0  0  0  0  0
   -8.4092    8.8538  -11.2990 N   0  0  0  0  0  0  0  0  0  0  0  0
   -7.3381    9.8926   -8.0280 C   0  0  0  0  0  0  0  0  0  0  0  0
   -4.3458   13.7121  -11.5140 N   0  0  0  0  0  0  0  0  0  0  0  0
   -5.5478   13.6364  -12.1864 C   0  0  0  0  0  0  0  0  0  0  0  0
   -5.9572   14.5395  -12.9136 O   0  0  0  0  0  0  0  0  0  0  0  0
   -5.9581   10.4851   -7.7363 C   0  0  0  0  0  0  0  0  0  0  0  0
   -4.8068    9.7633   -8.0566 C   0  0  0  0  0  0  0  0  0  0  0  0
   -3.5506   10.3101   -7.8085 C   0  0  0  0  0  0  0  0  0  0  0  0
   -3.4405   11.5856   -7.2383 C   0  0  0  0  0  0  0  0  0  0  0  0
   -4.5911   12.3019   -6.9155 C   0  0  0  0  0  0  0  0  0  0  0  0
   -5.8461   11.7538   -7.1583 C   0  0  0  0  0  0  0  0  0  0  0  0
   -2.0993   12.1777   -6.9729 C   0  0  0  0  0  0  0  0  0  0  0  0
   -1.7708   13.4214   -6.4416 C   0  0  0  0  0  0  0  0  0  0  0  0
   -0.4313   13.4856   -6.3949 N   0  0  0  0  0  0  0  0  0  0  0  0
    0.1723   12.4145   -6.8299 N   0  0  0  0  0  0  0  0  0  0  0  0
   -0.8042   11.6008   -7.2039 C   0  0  0  0  0  0  0  0  0  0  0  0
    0.3889   14.5981   -5.9187 C   0  0  0  0  0  0  0  0  0  0  0  0
   -3.6987   12.5799  -10.8351 C   0  0  0  0  0  0  0  0  0  0  0  0
   -2.1930   12.9387  -10.9658 C   0  0  2  0  0  0  0  0  0  0  0  0
   -2.1862   14.4653  -10.9438 C   0  0  0  0  0  0  0  0  0  0  0  0
   -3.5086   14.9068  -11.5988 C   0  0  0  0  0  0  0  0  0  0  0  0
   -1.6500   12.4417  -12.1854 O   0  0  0  0  0  0  0  0  0  0  0  0
   -6.1130   12.2997   -9.8672 H   0  0  0  0  0  0  0  0  0  0  0  0
   -8.2070   10.1267  -13.8888 H   0  0  0  0  0  0  0  0  0  0  0  0
   -6.8894   12.2377  -14.0929 H   0  0  0  0  0  0  0  0  0  0  0  0
   -8.0412    9.6089   -7.2589 H   0  0  0  0  0  0  0  0  0  0  0  0
   -5.9702   10.0274   -6.7361 H   0  0  0  0  0  0  0  0  0  0  0  0
   -4.8906    8.7807   -8.4969 H   0  0  0  0  0  0  0  0  0  0  0  0
   -2.6603    9.7509   -8.0557 H   0  0  0  0  0  0  0  0  0  0  0  0
   -4.5083   13.2849   -6.4758 H   0  0  0  0  0  0  0  0  0  0  0  0
   -6.7358   12.3089   -6.9000 H   0  0  0  0  0  0  0  0  0  0  0  0
   -2.1654   14.2228   -7.0835 H   0  0  0  0  0  0  0  0  0  0  0  0
   -2.1896   13.5226   -5.4295 H   0  0  0  0  0  0  0  0  0  0  0  0
   -0.6455   10.6216   -7.6310 H   0  0  0  0  0  0  0  0  0  0  0  0
    1.4531   14.3351   -6.0101 H   0  0  0  0  0  0  0  0  0  0  0  0
    0.1793   15.4930   -6.5230 H   0  0  0  0  0  0  0  0  0  0  0  0
    0.1513   14.8037   -4.8645 H   0  0  0  0  0  0  0  0  0  0  0  0
   -4.0045   12.5193   -9.7802 H   0  0  0  0  0  0  0  0  0  0  0  0
   -3.9276   11.6290  -11.3384 H   0  0  0  0  0  0  0  0  0  0  0  0
   -1.6452   12.5495  -10.0949 H   0  0  0  0  0  0  0  0  0  0  0  0
   -2.1318   14.8321   -9.9082 H   0  0  0  0  0  0  0  0  0  0  0  0
   -1.3293   14.8517  -11.5151 H   0  0  0  0  0  0  0  0  0  0  0  0
   -3.3493   15.2019  -12.6464 H   0  0  0  0  0  0  0  0  0  0  0  0
   -3.9607   15.7439  -11.0467 H   0  0  0  0  0  0  0  0  0  0  0  0
   -0.7305   12.6738  -12.2410 H   0  0  0  0  0  0  0  0  0  0  0  0
  1  2  2  0  0  0  0
  1  4  1  0  0  0  0
  1 12  1  0  0  0  0
  2  6  1  0  0  0  0
  3  4  2  0  0  0  0
  3  5  1  0  0  0  0
  5  6  2  0  0  0  0
  5  9  1  0  0  0  0
  6  7  1  0  0  0  0
  7  8  1  0  0  0  0
  7 10  2  0  0  0  0
  8  9  2  0  0  0  0
 10 14  1  0  0  0  0
 11 12  1  0  0  0  0
 11 26  1  0  0  0  0
 11 29  1  0  0  0  0
 12 13  2  0  0  0  0
 14 15  1  0  0  0  0
 14 19  1  0  0  0  0
 15 16  2  0  0  0  0
 16 17  1  0  0  0  0
 17 18  1  0  0  0  0
 17 20  2  0  0  0  0
 18 19  2  0  0  0  0
 20 21  1  0  0  0  0
 20 24  1  0  0  0  0
 21 22  1  0  0  0  0
 22 23  1  0  0  0  0
 22 25  1  0  0  0  0
 23 24  2  0  0  0  0
 26 27  1  0  0  0  0
 27 28  1  0  0  0  0
 27 30  1  0  0  0  0
 28 29  1  0  0  0  0
  2 31  1  0  0  0  0
  3 32  1  0  0  0  0
  4 33  1  0  0  0  0
 10 34  1  0  0  0  0
 14 35  1  0  0  0  0
 15 36  1  0  0  0  0
 16 37  1  0  0  0  0
 18 38  1  0  0  0  0
 19 39  1  0  0  0  0
 21 40  1  0  0  0  0
 21 41  1  0  0  0  0
 24 42  1  0  0  0  0
 25 43  1  0  0  0  0
 25 44  1  0  0  0  0
 25 45  1  0  0  0  0
 26 46  1  0  0  0  0
 26 47  1  0  0  0  0
 27 48  1  0  0  0  0
 28 49  1  0  0  0  0
 28 50  1  0  0  0  0
 29 51  1  0  0  0  0
 29 52  1  0  0  0  0
 30 53  1  0  0  0  0
M  END
> <Name>
30

> <IC50[uM]>
0.003

$$$$
30
  -OEChem-05192314333D
 Structure written by MMmdl.
 53 57  0     1  0  0  0  0  0999 V2000
   -6.3720   12.3564  -12.0094 C   0  0  0  0  0  0  0  0  0  0  0  0
   -6.5328   11.8103  -10.7336 C   0  0  0  0  0  0  0  0  0  0  0  0
   -7.7318   10.5755  -13.0290 C   0  0  0  0  0  0  0  0  0  0  0  0
   -6.9898   11.7633  -13.1279 C   0  0  0  0  0  0  0  0  0  0  0  0
   -7.8210   10.0065  -11.7558 C   0  0  0  0  0  0  0  0  0  0  0  0
   -7.2477   10.6184  -10.6026 C   0  0  0  0  0  0  0  0  0  0  0  0
   -7.6140    9.7458   -9.5136 C   0  0  0  0  0  0  0  0  0  0  0  0
   -8.2690    8.7218   -9.9879 N   0  0  0  0  0  0  0  0  0  0  0  0
   -8.4092    8.8538  -11.2990 N   0  0  0  0  0  0  0  0  0  0  0  0
   -7.3381    9.8926   -8.0280 C   0  0  0  0  0  0  0  0  0  0  0  0
   -4.3458   13.7121  -11.5140 N   0  0  0  0  0  0  0  0  0  0  0  0
   -5.5478   13.6364  -12.1864 C   0  0  0  0  0  0  0  0  0  0  0  0
   -5.9572   14.5395  -12.9136 O   0  0  0  0  0  0  0  0  0  0  0  0
   -5.9581   10.4851   -7.7363 C   0  0  0  0  0  0  0  0  0  0  0  0
   -4.8068    9.7633   -8.0566 C   0  0  0  0  0  0  0  0  0  0  0  0
   -3.5506   10.3101   -7.8085 C   0  0  0  0  0  0  0  0  0  0  0  0
   -3.4405   11.5856   -7.2383 C   0  0  0  0  0  0  0  0  0  0  0  0
   -4.5911   12.3019   -6.9155 C   0  0  0  0  0  0  0  0  0  0  0  0
   -5.8461   11.7538   -7.1583 C   0  0  0  0  0  0  0  0  0  0  0  0
   -2.0993   12.1777   -6.9729 C   0  0  0  0  0  0  0  0  0  0  0  0
   -1.7708   13.4214   -6.4416 C   0  0  0  0  0  0  0  0  0  0  0  0
   -0.4313   13.4856   -6.3949 N   0  0  0  0  0  0  0  0  0  0  0  0
    0.1723   12.4145   -6.8299 N   0  0  0  0  0  0  0  0  0  0  0  0
   -0.8042   11.6008   -7.2039 C   0  0  0  0  0  0  0  0  0  0  0  0
    0.3889   14.5981   -5.9187 C   0  0  0  0  0  0  0  0  0  0  0  0
   -3.6987   12.5799  -10.8351 C   0  0  0  0  0  0  0  0  0  0  0  0
   -2.1930   12.9387  -10.9658 C   0  0  2  0  0  0  0  0  0  0  0  0
   -2.1862   14.4653  -10.9438 C   0  0  0  0  0  0  0  0  0  0  0  0
   -3.5086   14.9068  -11.5988 C   0  0  0  0  0  0  0  0  0  0  0  0
   -1.6500   12.4417  -12.1854 O   0  0  0  0  0  0  0  0  0  0  0  0
   -6.1130   12.2997   -9.8672 H   0  0  0  0  0  0  0  0  0  0  0  0
   -8.2070   10.1267  -13.8888 H   0  0  0  0  0  0  0  0  0  0  0  0
   -6.8894   12.2377  -14.0929 H   0  0  0  0  0  0  0  0  0  0  0  0
   -8.0412    9.6089   -7.2589 H   0  0  0  0  0  0  0  0  0  0  0  0
   -4.8906    8.7807   -8.4969 H   0  0  0  0  0  0  0  0  0  0  0  0
   -3.0296    9.6149   -7.1338 H   0  0  0  0  0  0  0  0  0  0  0  0
   -3.0246   10.3476   -8.7739 H   0  0  0  0  0  0  0  0  0  0  0  0
   -4.5083   13.2849   -6.4758 H   0  0  0  0  0  0  0  0  0  0  0  0
   -6.7358   12.3089   -6.9000 H   0  0  0  0  0  0  0  0  0  0  0  0
   -2.1654   14.2228   -7.0835 H   0  0  0  0  0  0  0  0  0  0  0  0
   -2.1896   13.5226   -5.4295 H   0  0  0  0  0  0  0  0  0  0  0  0
   -0.6455   10.6216   -7.6310 H   0  0  0  0  0  0  0  0  0  0  0  0
    1.4531   14.3351   -6.0101 H   0  0  0  0  0  0  0  0  0  0  0  0
    0.1793   15.4930   -6.5230 H   0  0  0  0  0  0  0  0  0  0  0  0
    0.1513   14.8037   -4.8645 H   0  0  0  0  0  0  0  0  0  0  0  0
   -4.0045   12.5193   -9.7802 H   0  0  0  0  0  0  0  0  0  0  0  0
   -3.9276   11.6290  -11.3384 H   0  0  0  0  0  0  0  0  0  0  0  0
   -1.6452   12.5495  -10.0949 H   0  0  0  0  0  0  0  0  0  0  0  0
   -2.1318   14.8321   -9.9082 H   0  0  0  0  0  0  0  0  0  0  0  0
   -1.3293   14.8517  -11.5151 H   0  0  0  0  0  0  0  0  0  0  0  0
   -3.3493   15.2019  -12.6464 H   0  0  0  0  0  0  0  0  0  0  0  0
   -3.9607   15.7439  -11.0467 H   0  0  0  0  0  0  0  0  0  0  0  0
   -0.7305   12.6738  -12.2410 H   0  0  0  0  0  0  0  0  0  0  0  0
  1  2  2  0  0  0  0
  1  4  1  0  0  0  0
  1 12  1  0  0  0  0
  2  6  1  0  0  0  0
  3  4  2  0  0  0  0
  3  5  1  0  0  0  0
  5  6  2  0  0  0  0
  5  9  1  0  0  0  0
  6  7  1  0  0  0  0
  7  8  1  0  0  0  0
  7 10  2  0  0  0  0
  8  9  2  0  0  0  0
 10 14  1  0  0  0  0
 11 12  1  0  0  0  0
 11 26  1  0  0  0  0
 11 29  1  0  0  0  0
 12 13  2  0  0  0  0
 14 15  2  0  0  0  0
 14 19  1  0  0  0  0
 15 16  1  0  0  0  0
 16 17  1  0  0  0  0
 17 18  1  0  0  0  0
 17 20  2  0  0  0  0
 18 19  2  0  0  0  0
 20 21  1  0  0  0  0
 20 24  1  0  0  0  0
 21 22  1  0  0  0  0
 22 23  1  0  0  0  0
 22 25  1  0  0  0  0
 23 24  2  0  0  0  0
 26 27  1  0  0  0  0
 27 28  1  0  0  0  0
 27 30  1  0  0  0  0
 28 29  1  0  0  0  0
  2 31  1  0  0  0  0
  3 32  1  0  0  0  0
  4 33  1  0  0  0  0
 10 34  1  0  0  0  0
 15 35  1  0  0  0  0
 16 36  1  0  0  0  0
 16 37  1  0  0  0  0
 18 38  1  0  0  0  0
 19 39  1  0  0  0  0
 21 40  1  0  0  0  0
 21 41  1  0  0  0  0
 24 42  1  0  0  0  0
 25 43  1  0  0  0  0
 25 44  1  0  0  0  0
 25 45  1  0  0  0  0
 26 46  1  0  0  0  0
 26 47  1  0  0  0  0
 27 48  1  0  0  0  0
 28 49  1  0  0  0  0
 28 50  1  0  0  0  0
 29 51  1  0  0  0  0
 29 52  1  0  0  0  0
 30 53  1  0  0  0  0
M  END
> <Name>
30

> <IC50[uM]>
0.003

$$$$
30
  -OEChem-05192314333D
 Structure written by MMmdl.
 53 57  0     1  0  0  0  0  0999 V2000
   -6.3720   12.3564  -12.0094 C   0  0  0  0  0  0  0  0  0  0  0  0
   -6.5328   11.8103  -10.7336 C   0  0  0  0  0  0  0  0  0  0  0  0
   -7.7318   10.5755  -13.0290 C   0  0  0  0  0  0  0  0  0  0  0  0
   -6.9898   11.7633  -13.1279 C   0  0  0  0  0  0  0  0  0  0  0  0
   -7.8210   10.0065  -11.7558 C   0  0  0  0  0  0  0  0  0  0  0  0
   -7.2477   10.6184  -10.6026 C   0  0  0  0  0  0  0  0  0  0  0  0
   -7.6140    9.7458   -9.5136 C   0  0  0  0  0  0  0  0  0  0  0  0
   -8.2690    8.7218   -9.9879 N   0  0  0  0  0  0  0  0  0  0  0  0
   -8.4092    8.8538  -11.2990 N   0  0  0  0  0  0  0  0  0  0  0  0
   -7.3381    9.8926   -8.0280 C   0  0  0  0  0  0  0  0  0  0  0  0
   -4.3458   13.7121  -11.5140 N   0  0  0  0  0  0  0  0  0  0  0  0
   -5.5478   13.6364  -12.1864 C   0  0  0  0  0  0  0  0  0  0  0  0
   -5.9572   14.5395  -12.9136 O   0  0  0  0  0  0  0  0  0  0  0  0
   -5.9581   10.4851   -7.7363 C   0  0  0  0  0  0  0  0  0  0  0  0
   -4.8068    9.7633   -8.0566 C   0  0  0  0  0  0  0  0  0  0  0  0
   -3.5506   10.3101   -7.8085 C   0  0  0  0  0  0  0  0  0  0  0  0
   -3.4405   11.5856   -7.2383 C   0  0  0  0  0  0  0  0  0  0  0  0
   -4.5911   12.3019   -6.9155 C   0  0  0  0  0  0  0  0  0  0  0  0
   -5.8461   11.7538   -7.1583 C   0  0  0  0  0  0  0  0  0  0  0  0
   -2.0993   12.1777   -6.9729 C   0  0  0  0  0  0  0  0  0  0  0  0
   -1.7708   13.4214   -6.4416 C   0  0  0  0  0  0  0  0  0  0  0  0
   -0.4313   13.4856   -6.3949 N   0  0  0  0  0  0  0  0  0  0  0  0
    0.1723   12.4145   -6.8299 N   0  0  0  0  0  0  0  0  0  0  0  0
   -0.8042   11.6008   -7.2039 C   0  0  0  0  0  0  0  0  0  0  0  0
    0.3889   14.5981   -5.9187 C   0  0  0  0  0  0  0  0  0  0  0  0
   -3.6987   12.5799  -10.8351 C   0  0  0  0  0  0  0  0  0  0  0  0
   -2.1930   12.9387  -10.9658 C   0  0  2  0  0  0  0  0  0  0  0  0
   -2.1862   14.4653  -10.9438 C   0  0  0  0  0  0  0  0  0  0  0  0
   -3.5086   14.9068  -11.5988 C   0  0  0  0  0  0  0  0  0  0  0  0
   -1.6500   12.4417  -12.1854 O   0  0  0  0  0  0  0  0  0  0  0  0
   -5.4723   11.7440  -12.1691 H   0  0  0  0  0  0  0  0  0  0  0  0
   -6.1130   12.2997   -9.8672 H   0  0  0  0  0  0  0  0  0  0  0  0
   -8.2070   10.1267  -13.8888 H   0  0  0  0  0  0  0  0  0  0  0  0
   -6.8894   12.2377  -14.0929 H   0  0  0  0  0  0  0  0  0  0  0  0
   -8.0412    9.6089   -7.2589 H   0  0  0  0  0  0  0  0  0  0  0  0
   -4.8906    8.7807   -8.4969 H   0  0  0  0  0  0  0  0  0  0  0  0
   -2.6603    9.7509   -8.0557 H   0  0  0  0  0  0  0  0  0  0  0  0
   -4.5083   13.2849   -6.4758 H   0  0  0  0  0  0  0  0  0  0  0  0
   -6.7358   12.3089   -6.9000 H   0  0  0  0  0  0  0  0  0  0  0  0
   -2.1654   14.2228   -7.0835 H   0  0  0  0  0  0  0  0  0  0  0  0
   -2.1896   13.5226   -5.4295 H   0  0  0  0  0  0  0  0  0  0  0  0
   -0.6455   10.6216   -7.6310 H   0  0  0  0  0  0  0  0  0  0  0  0
    1.4531   14.3351   -6.0101 H   0  0  0  0  0  0  0  0  0  0  0  0
    0.1793   15.4930   -6.5230 H   0  0  0  0  0  0  0  0  0  0  0  0
    0.1513   14.8037   -4.8645 H   0  0  0  0  0  0  0  0  0  0  0  0
   -4.0045   12.5193   -9.7802 H   0  0  0  0  0  0  0  0  0  0  0  0
   -3.9276   11.6290  -11.3384 H   0  0  0  0  0  0  0  0  0  0  0  0
   -1.6452   12.5495  -10.0949 H   0  0  0  0  0  0  0  0  0  0  0  0
   -2.1318   14.8321   -9.9082 H   0  0  0  0  0  0  0  0  0  0  0  0
   -1.3293   14.8517  -11.5151 H   0  0  0  0  0  0  0  0  0  0  0  0
   -3.3493   15.2019  -12.6464 H   0  0  0  0  0  0  0  0  0  0  0  0
   -3.9607   15.7439  -11.0467 H   0  0  0  0  0  0  0  0  0  0  0  0
   -0.7305   12.6738  -12.2410 H   0  0  0  0  0  0  0  0  0  0  0  0
  1  2  1  0  0  0  0
  1  4  1  0  0  0  0
  1 12  1  0  0  0  0
  2  6  2  0  0  0  0
  3  4  2  0  0  0  0
  3  5  1  0  0  0  0
  5  6  1  0  0  0  0
  5  9  2  0  0  0  0
  6  7  1  0  0  0  0
  7  8  2  0  0  0  0
  7 10  1  0  0  0  0
  8  9  1  0  0  0  0
 10 14  2  0  0  0  0
 11 12  1  0  0  0  0
 11 26  1  0  0  0  0
 11 29  1  0  0  0  0
 12 13  2  0  0  0  0
 14 15  1  0  0  0  0
 14 19  1  0  0  0  0
 15 16  2  0  0  0  0
 16 17  1  0  0  0  0
 17 18  1  0  0  0  0
 17 20  2  0  0  0  0
 18 19  2  0  0  0  0
 20 21  1  0  0  0  0
 20 24  1  0  0  0  0
 21 22  1  0  0  0  0
 22 23  1  0  0  0  0
 22 25  1  0  0  0  0
 23 24  2  0  0  0  0
 26 27  1  0  0  0  0
 27 28  1  0  0  0  0
 27 30  1  0  0  0  0
 28 29  1  0  0  0  0
  1 31  1  0  0  0  0
  2 32  1  0  0  0  0
  3 33  1  0  0  0  0
  4 34  1  0  0  0  0
 10 35  1  0  0  0  0
 15 36  1  0  0  0  0
 16 37  1  0  0  0  0
 18 38  1  0  0  0  0
 19 39  1  0  0  0  0
 21 40  1  0  0  0  0
 21 41  1  0  0  0  0
 24 42  1  0  0  0  0
 25 43  1  0  0  0  0
 25 44  1  0  0  0  0
 25 45  1  0  0  0  0
 26 46  1  0  0  0  0
 26 47  1  0  0  0  0
 27 48  1  0  0  0  0
 28 49  1  0  0  0  0
 28 50  1  0  0  0  0
 29 51  1  0  0  0  0
 29 52  1  0  0  0  0
 30 53  1  0  0  0  0
M  END
> <Name>
30

> <IC50[uM]>
0.003

$$$$
30
  -OEChem-05192314333D
 Structure written by MMmdl.
 53 57  0     1  0  0  0  0  0999 V2000
   -6.3720   12.3564  -12.0094 C   0  0  0  0  0  0  0  0  0  0  0  0
   -6.5328   11.8103  -10.7336 C   0  0  0  0  0  0  0  0  0  0  0  0
   -7.7318   10.5755  -13.0290 C   0  0  0  0  0  0  0  0  0  0  0  0
   -6.9898   11.7633  -13.1279 C   0  0  0  0  0  0  0  0  0  0  0  0
   -7.8210   10.0065  -11.7558 C   0  0  0  0  0  0  0  0  0  0  0  0
   -7.2477   10.6184  -10.6026 C   0  0  0  0  0  0  0  0  0  0  0  0
   -7.6140    9.7458   -9.5136 C   0  0  0  0  0  0  0  0  0  0  0  0
   -8.2690    8.7218   -9.9879 N   0  0  0  0  0  0  0  0  0  0  0  0
   -8.4092    8.8538  -11.2990 N   0  0  0  0  0  0  0  0  0  0  0  0
   -7.3381    9.8926   -8.0280 C   0  0  0  0  0  0  0  0  0  0  0  0
   -4.3458   13.7121  -11.5140 N   0  0  0  0  0  0  0  0  0  0  0  0
   -5.5478   13.6364  -12.1864 C   0  0  0  0  0  0  0  0  0  0  0  0
   -5.9572   14.5395  -12.9136 O   0  0  0  0  0  0  0  0  0  0  0  0
   -5.9581   10.4851   -7.7363 C   0  0  0  0  0  0  0  0  0  0  0  0
   -4.8068    9.7633   -8.0566 C   0  0  0  0  0  0  0  0  0  0  0  0
   -3.5506   10.3101   -7.8085 C   0  0  0  0  0  0  0  0  0  0  0  0
   -3.4405   11.5856   -7.2383 C   0  0  0  0  0  0  0  0  0  0  0  0
   -4.5911   12.3019   -6.9155 C   0  0  0  0  0  0  0  0  0  0  0  0
   -5.8461   11.7538   -7.1583 C   0  0  0  0  0  0  0  0  0  0  0  0
   -2.0993   12.1777   -6.9729 C   0  0  0  0  0  0  0  0  0  0  0  0
   -1.7708   13.4214   -6.4416 C   0  0  0  0  0  0  0  0  0  0  0  0
   -0.4313   13.4856   -6.3949 N   0  0  0  0  0  0  0  0  0  0  0  0
    0.1723   12.4145   -6.8299 N   0  0  0  0  0  0  0  0  0  0  0  0
   -0.8042   11.6008   -7.2039 C   0  0  0  0  0  0  0  0  0  0  0  0
    0.3889   14.5981   -5.9187 C   0  0  0  0  0  0  0  0  0  0  0  0
   -3.6987   12.5799  -10.8351 C   0  0  0  0  0  0  0  0  0  0  0  0
   -2.1930   12.9387  -10.9658 C   0  0  2  0  0  0  0  0  0  0  0  0
   -2.1862   14.4653  -10.9438 C   0  0  0  0  0  0  0  0  0  0  0  0
   -3.5086   14.9068  -11.5988 C   0  0  0  0  0  0  0  0  0  0  0  0
   -1.6500   12.4417  -12.1854 O   0  0  0  0  0  0  0  0  0  0  0  0
   -6.1130   12.2997   -9.8672 H   0  0  0  0  0  0  0  0  0  0  0  0
   -8.2070   10.1267  -13.8888 H   0  0  0  0  0  0  0  0  0  0  0  0
   -6.8894   12.2377  -14.0929 H   0  0  0  0  0  0  0  0  0  0  0  0
   -6.3222   10.0437  -10.7549 H   0  0  0  0  0  0  0  0  0  0  0  0
   -8.0412    9.6089   -7.2589 H   0  0  0  0  0  0  0  0  0  0  0  0
   -4.8906    8.7807   -8.4969 H   0  0  0  0  0  0  0  0  0  0  0  0
   -2.6603    9.7509   -8.0557 H   0  0  0  0  0  0  0  0  0  0  0  0
   -4.5083   13.2849   -6.4758 H   0  0  0  0  0  0  0  0  0  0  0  0
   -6.7358   12.3089   -6.9000 H   0  0  0  0  0  0  0  0  0  0  0  0
   -2.1654   14.2228   -7.0835 H   0  0  0  0  0  0  0  0  0  0  0  0
   -2.1896   13.5226   -5.4295 H   0  0  0  0  0  0  0  0  0  0  0  0
   -0.6455   10.6216   -7.6310 H   0  0  0  0  0  0  0  0  0  0  0  0
    1.4531   14.3351   -6.0101 H   0  0  0  0  0  0  0  0  0  0  0  0
    0.1793   15.4930   -6.5230 H   0  0  0  0  0  0  0  0  0  0  0  0
    0.1513   14.8037   -4.8645 H   0  0  0  0  0  0  0  0  0  0  0  0
   -4.0045   12.5193   -9.7802 H   0  0  0  0  0  0  0  0  0  0  0  0
   -3.9276   11.6290  -11.3384 H   0  0  0  0  0  0  0  0  0  0  0  0
   -1.6452   12.5495  -10.0949 H   0  0  0  0  0  0  0  0  0  0  0  0
   -2.1318   14.8321   -9.9082 H   0  0  0  0  0  0  0  0  0  0  0  0
   -1.3293   14.8517  -11.5151 H   0  0  0  0  0  0  0  0  0  0  0  0
   -3.3493   15.2019  -12.6464 H   0  0  0  0  0  0  0  0  0  0  0  0
   -3.9607   15.7439  -11.0467 H   0  0  0  0  0  0  0  0  0  0  0  0
   -0.7305   12.6738  -12.2410 H   0  0  0  0  0  0  0  0  0  0  0  0
  1  2  2  0  0  0  0
  1  4  1  0  0  0  0
  1 12  1  0  0  0  0
  2  6  1  0  0  0  0
  3  4  2  0  0  0  0
  3  5  1  0  0  0  0
  5  6  1  0  0  0  0
  5  9  2  0  0  0  0
  6  7  1  0  0  0  0
  7  8  2  0  0  0  0
  7 10  1  0  0  0  0
  8  9  1  0  0  0  0
 10 14  2  0  0  0  0
 11 12  1  0  0  0  0
 11 26  1  0  0  0  0
 11 29  1  0  0  0  0
 12 13  2  0  0  0  0
 14 15  1  0  0  0  0
 14 19  1  0  0  0  0
 15 16  2  0  0  0  0
 16 17  1  0  0  0  0
 17 18  1  0  0  0  0
 17 20  2  0  0  0  0
 18 19  2  0  0  0  0
 20 21  1  0  0  0  0
 20 24  1  0  0  0  0
 21 22  1  0  0  0  0
 22 23  1  0  0  0  0
 22 25  1  0  0  0  0
 23 24  2  0  0  0  0
 26 27  1  0  0  0  0
 27 28  1  0  0  0  0
 27 30  1  0  0  0  0
 28 29  1  0  0  0  0
  2 31  1  0  0  0  0
  3 32  1  0  0  0  0
  4 33  1  0  0  0  0
  6 34  1  0  0  0  0
 10 35  1  0  0  0  0
 15 36  1  0  0  0  0
 16 37  1  0  0  0  0
 18 38  1  0  0  0  0
 19 39  1  0  0  0  0
 21 40  1  0  0  0  0
 21 41  1  0  0  0  0
 24 42  1  0  0  0  0
 25 43  1  0  0  0  0
 25 44  1  0  0  0  0
 25 45  1  0  0  0  0
 26 46  1  0  0  0  0
 26 47  1  0  0  0  0
 27 48  1  0  0  0  0
 28 49  1  0  0  0  0
 28 50  1  0  0  0  0
 29 51  1  0  0  0  0
 29 52  1  0  0  0  0
 30 53  1  0  0  0  0
M  END
> <Name>
30

> <IC50[uM]>
0.003

$$$$
30
  -OEChem-05192314333D
 Structure written by MMmdl.
 53 57  0     1  0  0  0  0  0999 V2000
   -6.3720   12.3564  -12.0094 C   0  0  0  0  0  0  0  0  0  0  0  0
   -6.5328   11.8103  -10.7336 C   0  0  0  0  0  0  0  0  0  0  0  0
   -7.7318   10.5755  -13.0290 C   0  0  0  0  0  0  0  0  0  0  0  0
   -6.9898   11.7633  -13.1279 C   0  0  0  0  0  0  0  0  0  0  0  0
   -7.8210   10.0065  -11.7558 C   0  0  0  0  0  0  0  0  0  0  0  0
   -7.2477   10.6184  -10.6026 C   0  0  0  0  0  0  0  0  0  0  0  0
   -7.6140    9.7458   -9.5136 C   0  0  0  0  0  0  0  0  0  0  0  0
   -8.2690    8.7218   -9.9879 N   0  0  0  0  0  0  0  0  0  0  0  0
   -8.4092    8.8538  -11.2990 N   0  0  0  0  0  0  0  0  0  0  0  0
   -7.3381    9.8926   -8.0280 C   0  0  0  0  0  0  0  0  0  0  0  0
   -4.3458   13.7121  -11.5140 N   0  0  0  0  0  0  0  0  0  0  0  0
   -5.5478   13.6364  -12.1864 C   0  0  0  0  0  0  0  0  0  0  0  0
   -5.9572   14.5395  -12.9136 O   0  0  0  0  0  0  0  0  0  0  0  0
   -5.9581   10.4851   -7.7363 C   0  0  0  0  0  0  0  0  0  0  0  0
   -4.8068    9.7633   -8.0566 C   0  0  0  0  0  0  0  0  0  0  0  0
   -3.5506   10.3101   -7.8085 C   0  0  0  0  0  0  0  0  0  0  0  0
   -3.4405   11.5856   -7.2383 C   0  0  0  0  0  0  0  0  0  0  0  0
   -4.5911   12.3019   -6.9155 C   0  0  0  0  0  0  0  0  0  0  0  0
   -5.8461   11.7538   -7.1583 C   0  0  0  0  0  0  0  0  0  0  0  0
   -2.0993   12.1777   -6.9729 C   0  0  0  0  0  0  0  0  0  0  0  0
   -1.7708   13.4214   -6.4416 C   0  0  0  0  0  0  0  0  0  0  0  0
   -0.4313   13.4856   -6.3949 N   0  0  0  0  0  0  0  0  0  0  0  0
    0.1723   12.4145   -6.8299 N   0  0  0  0  0  0  0  0  0  0  0  0
   -0.8042   11.6008   -7.2039 C   0  0  0  0  0  0  0  0  0  0  0  0
    0.3889   14.5981   -5.9187 C   0  0  0  0  0  0  0  0  0  0  0  0
   -3.6987   12.5799  -10.8351 C   0  0  0  0  0  0  0  0  0  0  0  0
   -2.1930   12.9387  -10.9658 C   0  0  2  0  0  0  0  0  0  0  0  0
   -2.1862   14.4653  -10.9438 C   0  0  0  0  0  0  0  0  0  0  0  0
   -3.5086   14.9068  -11.5988 C   0  0  0  0  0  0  0  0  0  0  0  0
   -1.6500   12.4417  -12.1854 O   0  0  0  0  0  0  0  0  0  0  0  0
   -6.1130   12.2997   -9.8672 H   0  0  0  0  0  0  0  0  0  0  0  0
   -8.7545   10.7893  -13.3731 H   0  0  0  0  0  0  0  0  0  0  0  0
   -7.2680    9.8339  -13.6960 H   0  0  0  0  0  0  0  0  0  0  0  0
   -6.8894   12.2377  -14.0929 H   0  0  0  0  0  0  0  0  0  0  0  0
   -8.0412    9.6089   -7.2589 H   0  0  0  0  0  0  0  0  0  0  0  0
   -4.8906    8.7807   -8.4969 H   0  0  0  0  0  0  0  0  0  0  0  0
   -2.6603    9.7509   -8.0557 H   0  0  0  0  0  0  0  0  0  0  0  0
   -4.5083   13.2849   -6.4758 H   0  0  0  0  0  0  0  0  0  0  0  0
   -6.7358   12.3089   -6.9000 H   0  0  0  0  0  0  0  0  0  0  0  0
   -2.1654   14.2228   -7.0835 H   0  0  0  0  0  0  0  0  0  0  0  0
   -2.1896   13.5226   -5.4295 H   0  0  0  0  0  0  0  0  0  0  0  0
   -0.6455   10.6216   -7.6310 H   0  0  0  0  0  0  0  0  0  0  0  0
    1.4531   14.3351   -6.0101 H   0  0  0  0  0  0  0  0  0  0  0  0
    0.1793   15.4930   -6.5230 H   0  0  0  0  0  0  0  0  0  0  0  0
    0.1513   14.8037   -4.8645 H   0  0  0  0  0  0  0  0  0  0  0  0
   -4.0045   12.5193   -9.7802 H   0  0  0  0  0  0  0  0  0  0  0  0
   -3.9276   11.6290  -11.3384 H   0  0  0  0  0  0  0  0  0  0  0  0
   -1.6452   12.5495  -10.0949 H   0  0  0  0  0  0  0  0  0  0  0  0
   -2.1318   14.8321   -9.9082 H   0  0  0  0  0  0  0  0  0  0  0  0
   -1.3293   14.8517  -11.5151 H   0  0  0  0  0  0  0  0  0  0  0  0
   -3.3493   15.2019  -12.6464 H   0  0  0  0  0  0  0  0  0  0  0  0
   -3.9607   15.7439  -11.0467 H   0  0  0  0  0  0  0  0  0  0  0  0
   -0.7305   12.6738  -12.2410 H   0  0  0  0  0  0  0  0  0  0  0  0
  1  2  1  0  0  0  0
  1  4  2  0  0  0  0
  1 12  1  0  0  0  0
  2  6  2  0  0  0  0
  3  4  1  0  0  0  0
  3  5  1  0  0  0  0
  5  6  1  0  0  0  0
  5  9  2  0  0  0  0
  6  7  1  0  0  0  0
  7  8  2  0  0  0  0
  7 10  1  0  0  0  0
  8  9  1  0  0  0  0
 10 14  2  0  0  0  0
 11 12  1  0  0  0  0
 11 26  1  0  0  0  0
 11 29  1  0  0  0  0
 12 13  2  0  0  0  0
 14 15  1  0  0  0  0
 14 19  1  0  0  0  0
 15 16  2  0  0  0  0
 16 17  1  0  0  0  0
 17 18  1  0  0  0  0
 17 20  2  0  0  0  0
 18 19  2  0  0  0  0
 20 21  1  0  0  0  0
 20 24  1  0  0  0  0
 21 22  1  0  0  0  0
 22 23  1  0  0  0  0
 22 25  1  0  0  0  0
 23 24  2  0  0  0  0
 26 27  1  0  0  0  0
 27 28  1  0  0  0  0
 27 30  1  0  0  0  0
 28 29  1  0  0  0  0
  2 31  1  0  0  0  0
  3 32  1  0  0  0  0
  3 33  1  0  0  0  0
  4 34  1  0  0  0  0
 10 35  1  0  0  0  0
 15 36  1  0  0  0  0
 16 37  1  0  0  0  0
 18 38  1  0  0  0  0
 19 39  1  0  0  0  0
 21 40  1  0  0  0  0
 21 41  1  0  0  0  0
 24 42  1  0  0  0  0
 25 43  1  0  0  0  0
 25 44  1  0  0  0  0
 25 45  1  0  0  0  0
 26 46  1  0  0  0  0
 26 47  1  0  0  0  0
 27 48  1  0  0  0  0
 28 49  1  0  0  0  0
 28 50  1  0  0  0  0
 29 51  1  0  0  0  0
 29 52  1  0  0  0  0
 30 53  1  0  0  0  0
M  END
> <Name>
30

> <IC50[uM]>
0.003

$$$$
30
  -OEChem-05192314333D
 Structure written by MMmdl.
 53 57  0     1  0  0  0  0  0999 V2000
   -6.3720   12.3564  -12.0094 C   0  0  0  0  0  0  0  0  0  0  0  0
   -6.5328   11.8103  -10.7336 C   0  0  0  0  0  0  0  0  0  0  0  0
   -7.7318   10.5755  -13.0290 C   0  0  0  0  0  0  0  0  0  0  0  0
   -6.9898   11.7633  -13.1279 C   0  0  0  0  0  0  0  0  0  0  0  0
   -7.8210   10.0065  -11.7558 C   0  0  0  0  0  0  0  0  0  0  0  0
   -7.2477   10.6184  -10.6026 C   0  0  0  0  0  0  0  0  0  0  0  0
   -7.6140    9.7458   -9.5136 C   0  0  0  0  0  0  0  0  0  0  0  0
   -8.2690    8.7218   -9.9879 N   0  0  0  0  0  0  0  0  0  0  0  0
   -8.4092    8.8538  -11.2990 N   0  0  0  0  0  0  0  0  0  0  0  0
   -7.3381    9.8926   -8.0280 C   0  0  0  0  0  0  0  0  0  0  0  0
   -4.3458   13.7121  -11.5140 N   0  0  0  0  0  0  0  0  0  0  0  0
   -5.5478   13.6364  -12.1864 C   0  0  0  0  0  0  0  0  0  0  0  0
   -5.9572   14.5395  -12.9136 O   0  0  0  0  0  0  0  0  0  0  0  0
   -5.9581   10.4851   -7.7363 C   0  0  0  0  0  0  0  0  0  0  0  0
   -4.8068    9.7633   -8.0566 C   0  0  0  0  0  0  0  0  0  0  0  0
   -3.5506   10.3101   -7.8085 C   0  0  0  0  0  0  0  0  0  0  0  0
   -3.4405   11.5856   -7.2383 C   0  0  0  0  0  0  0  0  0  0  0  0
   -4.5911   12.3019   -6.9155 C   0  0  0  0  0  0  0  0  0  0  0  0
   -5.8461   11.7538   -7.1583 C   0  0  0  0  0  0  0  0  0  0  0  0
   -2.0993   12.1777   -6.9729 C   0  0  0  0  0  0  0  0  0  0  0  0
   -1.7708   13.4214   -6.4416 C   0  0  0  0  0  0  0  0  0  0  0  0
   -0.4313   13.4856   -6.3949 N   0  0  0  0  0  0  0  0  0  0  0  0
    0.1723   12.4145   -6.8299 N   0  0  0  0  0  0  0  0  0  0  0  0
   -0.8042   11.6008   -7.2039 C   0  0  0  0  0  0  0  0  0  0  0  0
    0.3889   14.5981   -5.9187 C   0  0  0  0  0  0  0  0  0  0  0  0
   -3.6987   12.5799  -10.8351 C   0  0  0  0  0  0  0  0  0  0  0  0
   -2.1930   12.9387  -10.9658 C   0  0  2  0  0  0  0  0  0  0  0  0
   -2.1862   14.4653  -10.9438 C   0  0  0  0  0  0  0  0  0  0  0  0
   -3.5086   14.9068  -11.5988 C   0  0  0  0  0  0  0  0  0  0  0  0
   -1.6500   12.4417  -12.1854 O   0  0  0  0  0  0  0  0  0  0  0  0
   -6.1130   12.2997   -9.8672 H   0  0  0  0  0  0  0  0  0  0  0  0
   -8.2070   10.1267  -13.8888 H   0  0  0  0  0  0  0  0  0  0  0  0
   -6.8894   12.2377  -14.0929 H   0  0  0  0  0  0  0  0  0  0  0  0
   -6.8834    9.4593  -11.9332 H   0  0  0  0  0  0  0  0  0  0  0  0
   -8.0412    9.6089   -7.2589 H   0  0  0  0  0  0  0  0  0  0  0  0
   -4.8906    8.7807   -8.4969 H   0  0  0  0  0  0  0  0  0  0  0  0
   -2.6603    9.7509   -8.0557 H   0  0  0  0  0  0  0  0  0  0  0  0
   -4.5083   13.2849   -6.4758 H   0  0  0  0  0  0  0  0  0  0  0  0
   -6.7358   12.3089   -6.9000 H   0  0  0  0  0  0  0  0  0  0  0  0
   -2.1654   14.2228   -7.0835 H   0  0  0  0  0  0  0  0  0  0  0  0
   -2.1896   13.5226   -5.4295 H   0  0  0  0  0  0  0  0  0  0  0  0
   -0.6455   10.6216   -7.6310 H   0  0  0  0  0  0  0  0  0  0  0  0
    1.4531   14.3351   -6.0101 H   0  0  0  0  0  0  0  0  0  0  0  0
    0.1793   15.4930   -6.5230 H   0  0  0  0  0  0  0  0  0  0  0  0
    0.1513   14.8037   -4.8645 H   0  0  0  0  0  0  0  0  0  0  0  0
   -4.0045   12.5193   -9.7802 H   0  0  0  0  0  0  0  0  0  0  0  0
   -3.9276   11.6290  -11.3384 H   0  0  0  0  0  0  0  0  0  0  0  0
   -1.6452   12.5495  -10.0949 H   0  0  0  0  0  0  0  0  0  0  0  0
   -2.1318   14.8321   -9.9082 H   0  0  0  0  0  0  0  0  0  0  0  0
   -1.3293   14.8517  -11.5151 H   0  0  0  0  0  0  0  0  0  0  0  0
   -3.3493   15.2019  -12.6464 H   0  0  0  0  0  0  0  0  0  0  0  0
   -3.9607   15.7439  -11.0467 H   0  0  0  0  0  0  0  0  0  0  0  0
   -0.7305   12.6738  -12.2410 H   0  0  0  0  0  0  0  0  0  0  0  0
  1  2  2  0  0  0  0
  1  4  1  0  0  0  0
  1 12  1  0  0  0  0
  2  6  1  0  0  0  0
  3  4  2  0  0  0  0
  3  5  1  0  0  0  0
  5  6  1  0  0  0  0
  5  9  1  0  0  0  0
  6  7  2  0  0  0  0
  7  8  1  0  0  0  0
  7 10  1  0  0  0  0
  8  9  2  0  0  0  0
 10 14  2  0  0  0  0
 11 12  1  0  0  0  0
 11 26  1  0  0  0  0
 11 29  1  0  0  0  0
 12 13  2  0  0  0  0
 14 15  1  0  0  0  0
 14 19  1  0  0  0  0
 15 16  2  0  0  0  0
 16 17  1  0  0  0  0
 17 18  1  0  0  0  0
 17 20  2  0  0  0  0
 18 19  2  0  0  0  0
 20 21  1  0  0  0  0
 20 24  1  0  0  0  0
 21 22  1  0  0  0  0
 22 23  1  0  0  0  0
 22 25  1  0  0  0  0
 23 24  2  0  0  0  0
 26 27  1  0  0  0  0
 27 28  1  0  0  0  0
 27 30  1  0  0  0  0
 28 29  1  0  0  0  0
  2 31  1  0  0  0  0
  3 32  1  0  0  0  0
  4 33  1  0  0  0  0
  5 34  1  0  0  0  0
 10 35  1  0  0  0  0
 15 36  1  0  0  0  0
 16 37  1  0  0  0  0
 18 38  1  0  0  0  0
 19 39  1  0  0  0  0
 21 40  1  0  0  0  0
 21 41  1  0  0  0  0
 24 42  1  0  0  0  0
 25 43  1  0  0  0  0
 25 44  1  0  0  0  0
 25 45  1  0  0  0  0
 26 46  1  0  0  0  0
 26 47  1  0  0  0  0
 27 48  1  0  0  0  0
 28 49  1  0  0  0  0
 28 50  1  0  0  0  0
 29 51  1  0  0  0  0
 29 52  1  0  0  0  0
 30 53  1  0  0  0  0
M  END
> <Name>
30

> <IC50[uM]>
0.003

$$$$
30
  -OEChem-05192314333D
 Structure written by MMmdl.
 53 57  0     1  0  0  0  0  0999 V2000
   -6.3720   12.3564  -12.0094 C   0  0  0  0  0  0  0  0  0  0  0  0
   -6.5328   11.8103  -10.7336 C   0  0  0  0  0  0  0  0  0  0  0  0
   -7.7318   10.5755  -13.0290 C   0  0  0  0  0  0  0  0  0  0  0  0
   -6.9898   11.7633  -13.1279 C   0  0  0  0  0  0  0  0  0  0  0  0
   -7.8210   10.0065  -11.7558 C   0  0  0  0  0  0  0  0  0  0  0  0
   -7.2477   10.6184  -10.6026 C   0  0  0  0  0  0  0  0  0  0  0  0
   -7.6140    9.7458   -9.5136 C   0  0  0  0  0  0  0  0  0  0  0  0
   -8.2690    8.7218   -9.9879 N   0  0  0  0  0  0  0  0  0  0  0  0
   -8.4092    8.8538  -11.2990 N   0  0  0  0  0  0  0  0  0  0  0  0
   -7.3381    9.8926   -8.0280 C   0  0  0  0  0  0  0  0  0  0  0  0
   -4.3458   13.7121  -11.5140 N   0  0  0  0  0  0  0  0  0  0  0  0
   -5.5478   13.6364  -12.1864 C   0  0  0  0  0  0  0  0  0  0  0  0
   -5.9572   14.5395  -12.9136 O   0  0  0  0  0  0  0  0  0  0  0  0
   -5.9581   10.4851   -7.7363 C   0  0  0  0  0  0  0  0  0  0  0  0
   -4.8068    9.7633   -8.0566 C   0  0  0  0  0  0  0  0  0  0  0  0
   -3.5506   10.3101   -7.8085 C   0  0  0  0  0  0  0  0  0  0  0  0
   -3.4405   11.5856   -7.2383 C   0  0  0  0  0  0  0  0  0  0  0  0
   -4.5911   12.3019   -6.9155 C   0  0  0  0  0  0  0  0  0  0  0  0
   -5.8461   11.7538   -7.1583 C   0  0  0  0  0  0  0  0  0  0  0  0
   -2.0993   12.1777   -6.9729 C   0  0  0  0  0  0  0  0  0  0  0  0
   -1.7708   13.4214   -6.4416 C   0  0  0  0  0  0  0  0  0  0  0  0
   -0.4313   13.4856   -6.3949 N   0  0  0  0  0  0  0  0  0  0  0  0
    0.1723   12.4145   -6.8299 N   0  0  0  0  0  0  0  0  0  0  0  0
   -0.8042   11.6008   -7.2039 C   0  0  0  0  0  0  0  0  0  0  0  0
    0.3889   14.5981   -5.9187 C   0  0  0  0  0  0  0  0  0  0  0  0
   -3.6987   12.5799  -10.8351 C   0  0  0  0  0  0  0  0  0  0  0  0
   -2.1930   12.9387  -10.9658 C   0  0  2  0  0  0  0  0  0  0  0  0
   -2.1862   14.4653  -10.9438 C   0  0  0  0  0  0  0  0  0  0  0  0
   -3.5086   14.9068  -11.5988 C   0  0  0  0  0  0  0  0  0  0  0  0
   -1.6500   12.4417  -12.1854 O   0  0  0  0  0  0  0  0  0  0  0  0
   -6.1130   12.2997   -9.8672 H   0  0  0  0  0  0  0  0  0  0  0  0
   -8.2070   10.1267  -13.8888 H   0  0  0  0  0  0  0  0  0  0  0  0
   -7.6747   12.5202  -13.5378 H   0  0  0  0  0  0  0  0  0  0  0  0
   -6.1868   11.5644  -13.8529 H   0  0  0  0  0  0  0  0  0  0  0  0
   -8.0412    9.6089   -7.2589 H   0  0  0  0  0  0  0  0  0  0  0  0
   -4.8906    8.7807   -8.4969 H   0  0  0  0  0  0  0  0  0  0  0  0
   -2.6603    9.7509   -8.0557 H   0  0  0  0  0  0  0  0  0  0  0  0
   -4.5083   13.2849   -6.4758 H   0  0  0  0  0  0  0  0  0  0  0  0
   -6.7358   12.3089   -6.9000 H   0  0  0  0  0  0  0  0  0  0  0  0
   -2.1654   14.2228   -7.0835 H   0  0  0  0  0  0  0  0  0  0  0  0
   -2.1896   13.5226   -5.4295 H   0  0  0  0  0  0  0  0  0  0  0  0
   -0.6455   10.6216   -7.6310 H   0  0  0  0  0  0  0  0  0  0  0  0
    1.4531   14.3351   -6.0101 H   0  0  0  0  0  0  0  0  0  0  0  0
    0.1793   15.4930   -6.5230 H   0  0  0  0  0  0  0  0  0  0  0  0
    0.1513   14.8037   -4.8645 H   0  0  0  0  0  0  0  0  0  0  0  0
   -4.0045   12.5193   -9.7802 H   0  0  0  0  0  0  0  0  0  0  0  0
   -3.9276   11.6290  -11.3384 H   0  0  0  0  0  0  0  0  0  0  0  0
   -1.6452   12.5495  -10.0949 H   0  0  0  0  0  0  0  0  0  0  0  0
   -2.1318   14.8321   -9.9082 H   0  0  0  0  0  0  0  0  0  0  0  0
   -1.3293   14.8517  -11.5151 H   0  0  0  0  0  0  0  0  0  0  0  0
   -3.3493   15.2019  -12.6464 H   0  0  0  0  0  0  0  0  0  0  0  0
   -3.9607   15.7439  -11.0467 H   0  0  0  0  0  0  0  0  0  0  0  0
   -0.7305   12.6738  -12.2410 H   0  0  0  0  0  0  0  0  0  0  0  0
  1  2  2  0  0  0  0
  1  4  1  0  0  0  0
  1 12  1  0  0  0  0
  2  6  1  0  0  0  0
  3  4  1  0  0  0  0
  3  5  2  0  0  0  0
  5  6  1  0  0  0  0
  5  9  1  0  0  0  0
  6  7  2  0  0  0  0
  7  8  1  0  0  0  0
  7 10  1  0  0  0  0
  8  9  2  0  0  0  0
 10 14  2  0  0  0  0
 11 12  1  0  0  0  0
 11 26  1  0  0  0  0
 11 29  1  0  0  0  0
 12 13  2  0  0  0  0
 14 15  1  0  0  0  0
 14 19  1  0  0  0  0
 15 16  2  0  0  0  0
 16 17  1  0  0  0  0
 17 18  1  0  0  0  0
 17 20  2  0  0  0  0
 18 19  2  0  0  0  0
 20 21  1  0  0  0  0
 20 24  1  0  0  0  0
 21 22  1  0  0  0  0
 22 23  1  0  0  0  0
 22 25  1  0  0  0  0
 23 24  2  0  0  0  0
 26 27  1  0  0  0  0
 27 28  1  0  0  0  0
 27 30  1  0  0  0  0
 28 29  1  0  0  0  0
  2 31  1  0  0  0  0
  3 32  1  0  0  0  0
  4 33  1  0  0  0  0
  4 34  1  0  0  0  0
 10 35  1  0  0  0  0
 15 36  1  0  0  0  0
 16 37  1  0  0  0  0
 18 38  1  0  0  0  0
 19 39  1  0  0  0  0
 21 40  1  0  0  0  0
 21 41  1  0  0  0  0
 24 42  1  0  0  0  0
 25 43  1  0  0  0  0
 25 44  1  0  0  0  0
 25 45  1  0  0  0  0
 26 46  1  0  0  0  0
 26 47  1  0  0  0  0
 27 48  1  0  0  0  0
 28 49  1  0  0  0  0
 28 50  1  0  0  0  0
 29 51  1  0  0  0  0
 29 52  1  0  0  0  0
 30 53  1  0  0  0  0
M  END
> <Name>
30

> <IC50[uM]>
0.003

$$$$
30
  -OEChem-05192314333D
 Structure written by MMmdl.
 53 57  0     1  0  0  0  0  0999 V2000
   -6.3720   12.3564  -12.0094 C   0  0  0  0  0  0  0  0  0  0  0  0
   -6.5328   11.8103  -10.7336 C   0  0  0  0  0  0  0  0  0  0  0  0
   -7.7318   10.5755  -13.0290 C   0  0  0  0  0  0  0  0  0  0  0  0
   -6.9898   11.7633  -13.1279 C   0  0  0  0  0  0  0  0  0  0  0  0
   -7.8210   10.0065  -11.7558 C   0  0  0  0  0  0  0  0  0  0  0  0
   -7.2477   10.6184  -10.6026 C   0  0  0  0  0  0  0  0  0  0  0  0
   -7.6140    9.7458   -9.5136 C   0  0  0  0  0  0  0  0  0  0  0  0
   -8.2690    8.7218   -9.9879 N   0  0  0  0  0  0  0  0  0  0  0  0
   -8.4092    8.8538  -11.2990 N   0  0  0  0  0  0  0  0  0  0  0  0
   -7.3381    9.8926   -8.0280 C   0  0  0  0  0  0  0  0  0  0  0  0
   -4.3458   13.7121  -11.5140 N   0  0  0  0  0  0  0  0  0  0  0  0
   -5.5478   13.6364  -12.1864 C   0  0  0  0  0  0  0  0  0  0  0  0
   -5.9572   14.5395  -12.9136 O   0  0  0  0  0  0  0  0  0  0  0  0
   -5.9581   10.4851   -7.7363 C   0  0  0  0  0  0  0  0  0  0  0  0
   -4.8068    9.7633   -8.0566 C   0  0  0  0  0  0  0  0  0  0  0  0
   -3.5506   10.3101   -7.8085 C   0  0  0  0  0  0  0  0  0  0  0  0
   -3.4405   11.5856   -7.2383 C   0  0  0  0  0  0  0  0  0  0  0  0
   -4.5911   12.3019   -6.9155 C   0  0  0  0  0  0  0  0  0  0  0  0
   -5.8461   11.7538   -7.1583 C   0  0  0  0  0  0  0  0  0  0  0  0
   -2.0993   12.1777   -6.9729 C   0  0  0  0  0  0  0  0  0  0  0  0
   -1.7708   13.4214   -6.4416 C   0  0  0  0  0  0  0  0  0  0  0  0
   -0.4313   13.4856   -6.3949 N   0  0  0  0  0  0  0  0  0  0  0  0
    0.1723   12.4145   -6.8299 N   0  0  0  0  0  0  0  0  0  0  0  0
   -0.8042   11.6008   -7.2039 C   0  0  0  0  0  0  0  0  0  0  0  0
    0.3889   14.5981   -5.9187 C   0  0  0  0  0  0  0  0  0  0  0  0
   -3.6987   12.5799  -10.8351 C   0  0  0  0  0  0  0  0  0  0  0  0
   -2.1930   12.9387  -10.9658 C   0  0  2  0  0  0  0  0  0  0  0  0
   -2.1862   14.4653  -10.9438 C   0  0  0  0  0  0  0  0  0  0  0  0
   -3.5086   14.9068  -11.5988 C   0  0  0  0  0  0  0  0  0  0  0  0
   -1.6500   12.4417  -12.1854 O   0  0  0  0  0  0  0  0  0  0  0  0
   -5.5260   11.6309  -10.3284 H   0  0  0  0  0  0  0  0  0  0  0  0
   -7.0459   12.5654  -10.1199 H   0  0  0  0  0  0  0  0  0  0  0  0
   -8.2070   10.1267  -13.8888 H   0  0  0  0  0  0  0  0  0  0  0  0
   -6.8894   12.2377  -14.0929 H   0  0  0  0  0  0  0  0  0  0  0  0
   -8.0412    9.6089   -7.2589 H   0  0  0  0  0  0  0  0  0  0  0  0
   -4.8906    8.7807   -8.4969 H   0  0  0  0  0  0  0  0  0  0  0  0
   -2.6603    9.7509   -8.0557 H   0  0  0  0  0  0  0  0  0  0  0  0
   -4.5083   13.2849   -6.4758 H   0  0  0  0  0  0  0  0  0  0  0  0
   -6.7358   12.3089   -6.9000 H   0  0  0  0  0  0  0  0  0  0  0  0
   -2.1654   14.2228   -7.0835 H   0  0  0  0  0  0  0  0  0  0  0  0
   -2.1896   13.5226   -5.4295 H   0  0  0  0  0  0  0  0  0  0  0  0
   -0.6455   10.6216   -7.6310 H   0  0  0  0  0  0  0  0  0  0  0  0
    1.4531   14.3351   -6.0101 H   0  0  0  0  0  0  0  0  0  0  0  0
    0.1793   15.4930   -6.5230 H   0  0  0  0  0  0  0  0  0  0  0  0
    0.1513   14.8037   -4.8645 H   0  0  0  0  0  0  0  0  0  0  0  0
   -4.0045   12.5193   -9.7802 H   0  0  0  0  0  0  0  0  0  0  0  0
   -3.9276   11.6290  -11.3384 H   0  0  0  0  0  0  0  0  0  0  0  0
   -1.6452   12.5495  -10.0949 H   0  0  0  0  0  0  0  0  0  0  0  0
   -2.1318   14.8321   -9.9082 H   0  0  0  0  0  0  0  0  0  0  0  0
   -1.3293   14.8517  -11.5151 H   0  0  0  0  0  0  0  0  0  0  0  0
   -3.3493   15.2019  -12.6464 H   0  0  0  0  0  0  0  0  0  0  0  0
   -3.9607   15.7439  -11.0467 H   0  0  0  0  0  0  0  0  0  0  0  0
   -0.7305   12.6738  -12.2410 H   0  0  0  0  0  0  0  0  0  0  0  0
  1  2  1  0  0  0  0
  1  4  2  0  0  0  0
  1 12  1  0  0  0  0
  2  6  1  0  0  0  0
  3  4  1  0  0  0  0
  3  5  2  0  0  0  0
  5  6  1  0  0  0  0
  5  9  1  0  0  0  0
  6  7  2  0  0  0  0
  7  8  1  0  0  0  0
  7 10  1  0  0  0  0
  8  9  2  0  0  0  0
 10 14  2  0  0  0  0
 11 12  1  0  0  0  0
 11 26  1  0  0  0  0
 11 29  1  0  0  0  0
 12 13  2  0  0  0  0
 14 15  1  0  0  0  0
 14 19  1  0  0  0  0
 15 16  2  0  0  0  0
 16 17  1  0  0  0  0
 17 18  1  0  0  0  0
 17 20  2  0  0  0  0
 18 19  2  0  0  0  0
 20 21  1  0  0  0  0
 20 24  1  0  0  0  0
 21 22  1  0  0  0  0
 22 23  1  0  0  0  0
 22 25  1  0  0  0  0
 23 24  2  0  0  0  0
 26 27  1  0  0  0  0
 27 28  1  0  0  0  0
 27 30  1  0  0  0  0
 28 29  1  0  0  0  0
  2 31  1  0  0  0  0
  2 32  1  0  0  0  0
  3 33  1  0  0  0  0
  4 34  1  0  0  0  0
 10 35  1  0  0  0  0
 15 36  1  0  0  0  0
 16 37  1  0  0  0  0
 18 38  1  0  0  0  0
 19 39  1  0  0  0  0
 21 40  1  0  0  0  0
 21 41  1  0  0  0  0
 24 42  1  0  0  0  0
 25 43  1  0  0  0  0
 25 44  1  0  0  0  0
 25 45  1  0  0  0  0
 26 46  1  0  0  0  0
 26 47  1  0  0  0  0
 27 48  1  0  0  0  0
 28 49  1  0  0  0  0
 28 50  1  0  0  0  0
 29 51  1  0  0  0  0
 29 52  1  0  0  0  0
 30 53  1  0  0  0  0
M  END
> <Name>
30

> <IC50[uM]>
0.003

$$$$
30
  -OEChem-05192314333D
 Structure written by MMmdl.
 53 57  0     1  0  0  0  0  0999 V2000
   -6.3720   12.3564  -12.0094 C   0  0  0  0  0  0  0  0  0  0  0  0
   -6.5328   11.8103  -10.7336 C   0  0  0  0  0  0  0  0  0  0  0  0
   -7.7318   10.5755  -13.0290 C   0  0  0  0  0  0  0  0  0  0  0  0
   -6.9898   11.7633  -13.1279 C   0  0  0  0  0  0  0  0  0  0  0  0
   -7.8210   10.0065  -11.7558 C   0  0  0  0  0  0  0  0  0  0  0  0
   -7.2477   10.6184  -10.6026 C   0  0  0  0  0  0  0  0  0  0  0  0
   -7.6140    9.7458   -9.5136 C   0  0  0  0  0  0  0  0  0  0  0  0
   -8.2690    8.7218   -9.9879 N   0  0  0  0  0  0  0  0  0  0  0  0
   -8.4092    8.8538  -11.2990 N   0  0  0  0  0  0  0  0  0  0  0  0
   -7.3381    9.8926   -8.0280 C   0  0  0  0  0  0  0  0  0  0  0  0
   -4.3458   13.7121  -11.5140 N   0  0  0  0  0  0  0  0  0  0  0  0
   -5.5478   13.6364  -12.1864 C   0  0  0  0  0  0  0  0  0  0  0  0
   -5.9572   14.5395  -12.9136 O   0  0  0  0  0  0  0  0  0  0  0  0
   -5.9581   10.4851   -7.7363 C   0  0  0  0  0  0  0  0  0  0  0  0
   -4.8068    9.7633   -8.0566 C   0  0  0  0  0  0  0  0  0  0  0  0
   -3.5506   10.3101   -7.8085 C   0  0  0  0  0  0  0  0  0  0  0  0
   -3.4405   11.5856   -7.2383 C   0  0  0  0  0  0  0  0  0  0  0  0
   -4.5911   12.3019   -6.9155 C   0  0  0  0  0  0  0  0  0  0  0  0
   -5.8461   11.7538   -7.1583 C   0  0  0  0  0  0  0  0  0  0  0  0
   -2.0993   12.1777   -6.9729 C   0  0  0  0  0  0  0  0  0  0  0  0
   -1.7708   13.4214   -6.4416 C   0  0  0  0  0  0  0  0  0  0  0  0
   -0.4313   13.4856   -6.3949 N   0  0  0  0  0  0  0  0  0  0  0  0
    0.1723   12.4145   -6.8299 N   0  0  0  0  0  0  0  0  0  0  0  0
   -0.8042   11.6008   -7.2039 C   0  0  0  0  0  0  0  0  0  0  0  0
    0.3889   14.5981   -5.9187 C   0  0  0  0  0  0  0  0  0  0  0  0
   -3.6987   12.5799  -10.8351 C   0  0  0  0  0  0  0  0  0  0  0  0
   -2.1930   12.9387  -10.9658 C   0  0  2  0  0  0  0  0  0  0  0  0
   -2.1862   14.4653  -10.9438 C   0  0  0  0  0  0  0  0  0  0  0  0
   -3.5086   14.9068  -11.5988 C   0  0  0  0  0  0  0  0  0  0  0  0
   -1.6500   12.4417  -12.1854 O   0  0  0  0  0  0  0  0  0  0  0  0
   -5.4723   11.7440  -12.1691 H   0  0  0  0  0  0  0  0  0  0  0  0
   -6.1130   12.2997   -9.8672 H   0  0  0  0  0  0  0  0  0  0  0  0
   -8.2070   10.1267  -13.8888 H   0  0  0  0  0  0  0  0  0  0  0  0
   -6.8894   12.2377  -14.0929 H   0  0  0  0  0  0  0  0  0  0  0  0
   -8.0412    9.6089   -7.2589 H   0  0  0  0  0  0  0  0  0  0  0  0
   -4.8906    8.7807   -8.4969 H   0  0  0  0  0  0  0  0  0  0  0  0
   -2.6603    9.7509   -8.0557 H   0  0  0  0  0  0  0  0  0  0  0  0
   -3.4412   12.0353   -8.2422 H   0  0  0  0  0  0  0  0  0  0  0  0
   -4.5083   13.2849   -6.4758 H   0  0  0  0  0  0  0  0  0  0  0  0
   -6.7358   12.3089   -6.9000 H   0  0  0  0  0  0  0  0  0  0  0  0
   -2.4624   14.1888   -6.1268 H   0  0  0  0  0  0  0  0  0  0  0  0
   -0.6455   10.6216   -7.6310 H   0  0  0  0  0  0  0  0  0  0  0  0
    1.4531   14.3351   -6.0101 H   0  0  0  0  0  0  0  0  0  0  0  0
    0.1793   15.4930   -6.5230 H   0  0  0  0  0  0  0  0  0  0  0  0
    0.1513   14.8037   -4.8645 H   0  0  0  0  0  0  0  0  0  0  0  0
   -4.0045   12.5193   -9.7802 H   0  0  0  0  0  0  0  0  0  0  0  0
   -3.9276   11.6290  -11.3384 H   0  0  0  0  0  0  0  0  0  0  0  0
   -1.6452   12.5495  -10.0949 H   0  0  0  0  0  0  0  0  0  0  0  0
   -2.1318   14.8321   -9.9082 H   0  0  0  0  0  0  0  0  0  0  0  0
   -1.3293   14.8517  -11.5151 H   0  0  0  0  0  0  0  0  0  0  0  0
   -3.3493   15.2019  -12.6464 H   0  0  0  0  0  0  0  0  0  0  0  0
   -3.9607   15.7439  -11.0467 H   0  0  0  0  0  0  0  0  0  0  0  0
   -0.7305   12.6738  -12.2410 H   0  0  0  0  0  0  0  0  0  0  0  0
  1  2  1  0  0  0  0
  1  4  1  0  0  0  0
  1 12  1  0  0  0  0
  2  6  2  0  0  0  0
  3  4  2  0  0  0  0
  3  5  1  0  0  0  0
  5  6  1  0  0  0  0
  5  9  2  0  0  0  0
  6  7  1  0  0  0  0
  7  8  2  0  0  0  0
  7 10  1  0  0  0  0
  8  9  1  0  0  0  0
 10 14  2  0  0  0  0
 11 12  1  0  0  0  0
 11 26  1  0  0  0  0
 11 29  1  0  0  0  0
 12 13  2  0  0  0  0
 14 15  1  0  0  0  0
 14 19  1  0  0  0  0
 15 16  2  0  0  0  0
 16 17  1  0  0  0  0
 17 18  1  0  0  0  0
 17 20  1  0  0  0  0
 18 19  2  0  0  0  0
 20 21  2  0  0  0  0
 20 24  1  0  0  0  0
 21 22  1  0  0  0  0
 22 23  1  0  0  0  0
 22 25  1  0  0  0  0
 23 24  2  0  0  0  0
 26 27  1  0  0  0  0
 27 28  1  0  0  0  0
 27 30  1  0  0  0  0
 28 29  1  0  0  0  0
  1 31  1  0  0  0  0
  2 32  1  0  0  0  0
  3 33  1  0  0  0  0
  4 34  1  0  0  0  0
 10 35  1  0  0  0  0
 15 36  1  0  0  0  0
 16 37  1  0  0  0  0
 17 38  1  0  0  0  0
 18 39  1  0  0  0  0
 19 40  1  0  0  0  0
 21 41  1  0  0  0  0
 24 42  1  0  0  0  0
 25 43  1  0  0  0  0
 25 44  1  0  0  0  0
 25 45  1  0  0  0  0
 26 46  1  0  0  0  0
 26 47  1  0  0  0  0
 27 48  1  0  0  0  0
 28 49  1  0  0  0  0
 28 50  1  0  0  0  0
 29 51  1  0  0  0  0
 29 52  1  0  0  0  0
 30 53  1  0  0  0  0
M  END
> <Name>
30

> <IC50[uM]>
0.003

$$$$
30
  -OEChem-05192314333D
 Structure written by MMmdl.
 53 57  0     1  0  0  0  0  0999 V2000
   -6.3720   12.3564  -12.0094 C   0  0  0  0  0  0  0  0  0  0  0  0
   -6.5328   11.8103  -10.7336 C   0  0  0  0  0  0  0  0  0  0  0  0
   -7.7318   10.5755  -13.0290 C   0  0  0  0  0  0  0  0  0  0  0  0
   -6.9898   11.7633  -13.1279 C   0  0  0  0  0  0  0  0  0  0  0  0
   -7.8210   10.0065  -11.7558 C   0  0  0  0  0  0  0  0  0  0  0  0
   -7.2477   10.6184  -10.6026 C   0  0  0  0  0  0  0  0  0  0  0  0
   -7.6140    9.7458   -9.5136 C   0  0  0  0  0  0  0  0  0  0  0  0
   -8.2690    8.7218   -9.9879 N   0  0  0  0  0  0  0  0  0  0  0  0
   -8.4092    8.8538  -11.2990 N   0  0  0  0  0  0  0  0  0  0  0  0
   -7.3381    9.8926   -8.0280 C   0  0  0  0  0  0  0  0  0  0  0  0
   -4.3458   13.7121  -11.5140 N   0  0  0  0  0  0  0  0  0  0  0  0
   -5.5478   13.6364  -12.1864 C   0  0  0  0  0  0  0  0  0  0  0  0
   -5.9572   14.5395  -12.9136 O   0  0  0  0  0  0  0  0  0  0  0  0
   -5.9581   10.4851   -7.7363 C   0  0  0  0  0  0  0  0  0  0  0  0
   -4.8068    9.7633   -8.0566 C   0  0  0  0  0  0  0  0  0  0  0  0
   -3.5506   10.3101   -7.8085 C   0  0  0  0  0  0  0  0  0  0  0  0
   -3.4405   11.5856   -7.2383 C   0  0  0  0  0  0  0  0  0  0  0  0
   -4.5911   12.3019   -6.9155 C   0  0  0  0  0  0  0  0  0  0  0  0
   -5.8461   11.7538   -7.1583 C   0  0  0  0  0  0  0  0  0  0  0  0
   -2.0993   12.1777   -6.9729 C   0  0  0  0  0  0  0  0  0  0  0  0
   -1.7708   13.4214   -6.4416 C   0  0  0  0  0  0  0  0  0  0  0  0
   -0.4313   13.4856   -6.3949 N   0  0  0  0  0  0  0  0  0  0  0  0
    0.1723   12.4145   -6.8299 N   0  0  0  0  0  0  0  0  0  0  0  0
   -0.8042   11.6008   -7.2039 C   0  0  0  0  0  0  0  0  0  0  0  0
    0.3889   14.5981   -5.9187 C   0  0  0  0  0  0  0  0  0  0  0  0
   -3.6987   12.5799  -10.8351 C   0  0  0  0  0  0  0  0  0  0  0  0
   -2.1930   12.9387  -10.9658 C   0  0  2  0  0  0  0  0  0  0  0  0
   -2.1862   14.4653  -10.9438 C   0  0  0  0  0  0  0  0  0  0  0  0
   -3.5086   14.9068  -11.5988 C   0  0  0  0  0  0  0  0  0  0  0  0
   -1.6500   12.4417  -12.1854 O   0  0  0  0  0  0  0  0  0  0  0  0
   -6.1130   12.2997   -9.8672 H   0  0  0  0  0  0  0  0  0  0  0  0
   -8.2070   10.1267  -13.8888 H   0  0  0  0  0  0  0  0  0  0  0  0
   -6.8894   12.2377  -14.0929 H   0  0  0  0  0  0  0  0  0  0  0  0
   -6.3222   10.0437  -10.7549 H   0  0  0  0  0  0  0  0  0  0  0  0
   -8.0412    9.6089   -7.2589 H   0  0  0  0  0  0  0  0  0  0  0  0
   -4.8906    8.7807   -8.4969 H   0  0  0  0  0  0  0  0  0  0  0  0
   -2.6603    9.7509   -8.0557 H   0  0  0  0  0  0  0  0  0  0  0  0
   -3.4412   12.0353   -8.2422 H   0  0  0  0  0  0  0  0  0  0  0  0
   -4.5083   13.2849   -6.4758 H   0  0  0  0  0  0  0  0  0  0  0  0
   -6.7358   12.3089   -6.9000 H   0  0  0  0  0  0  0  0  0  0  0  0
   -2.4624   14.1888   -6.1268 H   0  0  0  0  0  0  0  0  0  0  0  0
   -0.6455   10.6216   -7.6310 H   0  0  0  0  0  0  0  0  0  0  0  0
    1.4531   14.3351   -6.0101 H   0  0  0  0  0  0  0  0  0  0  0  0
    0.1793   15.4930   -6.5230 H   0  0  0  0  0  0  0  0  0  0  0  0
    0.1513   14.8037   -4.8645 H   0  0  0  0  0  0  0  0  0  0  0  0
   -4.0045   12.5193   -9.7802 H   0  0  0  0  0  0  0  0  0  0  0  0
   -3.9276   11.6290  -11.3384 H   0  0  0  0  0  0  0  0  0  0  0  0
   -1.6452   12.5495  -10.0949 H   0  0  0  0  0  0  0  0  0  0  0  0
   -2.1318   14.8321   -9.9082 H   0  0  0  0  0  0  0  0  0  0  0  0
   -1.3293   14.8517  -11.5151 H   0  0  0  0  0  0  0  0  0  0  0  0
   -3.3493   15.2019  -12.6464 H   0  0  0  0  0  0  0  0  0  0  0  0
   -3.9607   15.7439  -11.0467 H   0  0  0  0  0  0  0  0  0  0  0  0
   -0.7305   12.6738  -12.2410 H   0  0  0  0  0  0  0  0  0  0  0  0
  1  2  2  0  0  0  0
  1  4  1  0  0  0  0
  1 12  1  0  0  0  0
  2  6  1  0  0  0  0
  3  4  2  0  0  0  0
  3  5  1  0  0  0  0
  5  6  1  0  0  0  0
  5  9  2  0  0  0  0
  6  7  1  0  0  0  0
  7  8  2  0  0  0  0
  7 10  1  0  0  0  0
  8  9  1  0  0  0  0
 10 14  2  0  0  0  0
 11 12  1  0  0  0  0
 11 26  1  0  0  0  0
 11 29  1  0  0  0  0
 12 13  2  0  0  0  0
 14 15  1  0  0  0  0
 14 19  1  0  0  0  0
 15 16  2  0  0  0  0
 16 17  1  0  0  0  0
 17 18  1  0  0  0  0
 17 20  1  0  0  0  0
 18 19  2  0  0  0  0
 20 21  2  0  0  0  0
 20 24  1  0  0  0  0
 21 22  1  0  0  0  0
 22 23  1  0  0  0  0
 22 25  1  0  0  0  0
 23 24  2  0  0  0  0
 26 27  1  0  0  0  0
 27 28  1  0  0  0  0
 27 30  1  0  0  0  0
 28 29  1  0  0  0  0
  2 31  1  0  0  0  0
  3 32  1  0  0  0  0
  4 33  1  0  0  0  0
  6 34  1  0  0  0  0
 10 35  1  0  0  0  0
 15 36  1  0  0  0  0
 16 37  1  0  0  0  0
 17 38  1  0  0  0  0
 18 39  1  0  0  0  0
 19 40  1  0  0  0  0
 21 41  1  0  0  0  0
 24 42  1  0  0  0  0
 25 43  1  0  0  0  0
 25 44  1  0  0  0  0
 25 45  1  0  0  0  0
 26 46  1  0  0  0  0
 26 47  1  0  0  0  0
 27 48  1  0  0  0  0
 28 49  1  0  0  0  0
 28 50  1  0  0  0  0
 29 51  1  0  0  0  0
 29 52  1  0  0  0  0
 30 53  1  0  0  0  0
M  END
> <Name>
30

> <IC50[uM]>
0.003

$$$$
30
  -OEChem-05192314333D
 Structure written by MMmdl.
 53 57  0     1  0  0  0  0  0999 V2000
   -6.3720   12.3564  -12.0094 C   0  0  0  0  0  0  0  0  0  0  0  0
   -6.5328   11.8103  -10.7336 C   0  0  0  0  0  0  0  0  0  0  0  0
   -7.7318   10.5755  -13.0290 C   0  0  0  0  0  0  0  0  0  0  0  0
   -6.9898   11.7633  -13.1279 C   0  0  0  0  0  0  0  0  0  0  0  0
   -7.8210   10.0065  -11.7558 C   0  0  0  0  0  0  0  0  0  0  0  0
   -7.2477   10.6184  -10.6026 C   0  0  0  0  0  0  0  0  0  0  0  0
   -7.6140    9.7458   -9.5136 C   0  0  0  0  0  0  0  0  0  0  0  0
   -8.2690    8.7218   -9.9879 N   0  0  0  0  0  0  0  0  0  0  0  0
   -8.4092    8.8538  -11.2990 N   0  0  0  0  0  0  0  0  0  0  0  0
   -7.3381    9.8926   -8.0280 C   0  0  0  0  0  0  0  0  0  0  0  0
   -4.3458   13.7121  -11.5140 N   0  0  0  0  0  0  0  0  0  0  0  0
   -5.5478   13.6364  -12.1864 C   0  0  0  0  0  0  0  0  0  0  0  0
   -5.9572   14.5395  -12.9136 O   0  0  0  0  0  0  0  0  0  0  0  0
   -5.9581   10.4851   -7.7363 C   0  0  0  0  0  0  0  0  0  0  0  0
   -4.8068    9.7633   -8.0566 C   0  0  0  0  0  0  0  0  0  0  0  0
   -3.5506   10.3101   -7.8085 C   0  0  0  0  0  0  0  0  0  0  0  0
   -3.4405   11.5856   -7.2383 C   0  0  0  0  0  0  0  0  0  0  0  0
   -4.5911   12.3019   -6.9155 C   0  0  0  0  0  0  0  0  0  0  0  0
   -5.8461   11.7538   -7.1583 C   0  0  0  0  0  0  0  0  0  0  0  0
   -2.0993   12.1777   -6.9729 C   0  0  0  0  0  0  0  0  0  0  0  0
   -1.7708   13.4214   -6.4416 C   0  0  0  0  0  0  0  0  0  0  0  0
   -0.4313   13.4856   -6.3949 N   0  0  0  0  0  0  0  0  0  0  0  0
    0.1723   12.4145   -6.8299 N   0  0  0  0  0  0  0  0  0  0  0  0
   -0.8042   11.6008   -7.2039 C   0  0  0  0  0  0  0  0  0  0  0  0
    0.3889   14.5981   -5.9187 C   0  0  0  0  0  0  0  0  0  0  0  0
   -3.6987   12.5799  -10.8351 C   0  0  0  0  0  0  0  0  0  0  0  0
   -2.1930   12.9387  -10.9658 C   0  0  2  0  0  0  0  0  0  0  0  0
   -2.1862   14.4653  -10.9438 C   0  0  0  0  0  0  0  0  0  0  0  0
   -3.5086   14.9068  -11.5988 C   0  0  0  0  0  0  0  0  0  0  0  0
   -1.6500   12.4417  -12.1854 O   0  0  0  0  0  0  0  0  0  0  0  0
   -6.1130   12.2997   -9.8672 H   0  0  0  0  0  0  0  0  0  0  0  0
   -8.7545   10.7893  -13.3731 H   0  0  0  0  0  0  0  0  0  0  0  0
   -7.2680    9.8339  -13.6960 H   0  0  0  0  0  0  0  0  0  0  0  0
   -6.8894   12.2377  -14.0929 H   0  0  0  0  0  0  0  0  0  0  0  0
   -8.0412    9.6089   -7.2589 H   0  0  0  0  0  0  0  0  0  0  0  0
   -4.8906    8.7807   -8.4969 H   0  0  0  0  0  0  0  0  0  0  0  0
   -2.6603    9.7509   -8.0557 H   0  0  0  0  0  0  0  0  0  0  0  0
   -3.4412   12.0353   -8.2422 H   0  0  0  0  0  0  0  0  0  0  0  0
   -4.5083   13.2849   -6.4758 H   0  0  0  0  0  0  0  0  0  0  0  0
   -6.7358   12.3089   -6.9000 H   0  0  0  0  0  0  0  0  0  0  0  0
   -2.4624   14.1888   -6.1268 H   0  0  0  0  0  0  0  0  0  0  0  0
   -0.6455   10.6216   -7.6310 H   0  0  0  0  0  0  0  0  0  0  0  0
    1.4531   14.3351   -6.0101 H   0  0  0  0  0  0  0  0  0  0  0  0
    0.1793   15.4930   -6.5230 H   0  0  0  0  0  0  0  0  0  0  0  0
    0.1513   14.8037   -4.8645 H   0  0  0  0  0  0  0  0  0  0  0  0
   -4.0045   12.5193   -9.7802 H   0  0  0  0  0  0  0  0  0  0  0  0
   -3.9276   11.6290  -11.3384 H   0  0  0  0  0  0  0  0  0  0  0  0
   -1.6452   12.5495  -10.0949 H   0  0  0  0  0  0  0  0  0  0  0  0
   -2.1318   14.8321   -9.9082 H   0  0  0  0  0  0  0  0  0  0  0  0
   -1.3293   14.8517  -11.5151 H   0  0  0  0  0  0  0  0  0  0  0  0
   -3.3493   15.2019  -12.6464 H   0  0  0  0  0  0  0  0  0  0  0  0
   -3.9607   15.7439  -11.0467 H   0  0  0  0  0  0  0  0  0  0  0  0
   -0.7305   12.6738  -12.2410 H   0  0  0  0  0  0  0  0  0  0  0  0
  1  2  1  0  0  0  0
  1  4  2  0  0  0  0
  1 12  1  0  0  0  0
  2  6  2  0  0  0  0
  3  4  1  0  0  0  0
  3  5  1  0  0  0  0
  5  6  1  0  0  0  0
  5  9  2  0  0  0  0
  6  7  1  0  0  0  0
  7  8  2  0  0  0  0
  7 10  1  0  0  0  0
  8  9  1  0  0  0  0
 10 14  2  0  0  0  0
 11 12  1  0  0  0  0
 11 26  1  0  0  0  0
 11 29  1  0  0  0  0
 12 13  2  0  0  0  0
 14 15  1  0  0  0  0
 14 19  1  0  0  0  0
 15 16  2  0  0  0  0
 16 17  1  0  0  0  0
 17 18  1  0  0  0  0
 17 20  1  0  0  0  0
 18 19  2  0  0  0  0
 20 21  2  0  0  0  0
 20 24  1  0  0  0  0
 21 22  1  0  0  0  0
 22 23  1  0  0  0  0
 22 25  1  0  0  0  0
 23 24  2  0  0  0  0
 26 27  1  0  0  0  0
 27 28  1  0  0  0  0
 27 30  1  0  0  0  0
 28 29  1  0  0  0  0
  2 31  1  0  0  0  0
  3 32  1  0  0  0  0
  3 33  1  0  0  0  0
  4 34  1  0  0  0  0
 10 35  1  0  0  0  0
 15 36  1  0  0  0  0
 16 37  1  0  0  0  0
 17 38  1  0  0  0  0
 18 39  1  0  0  0  0
 19 40  1  0  0  0  0
 21 41  1  0  0  0  0
 24 42  1  0  0  0  0
 25 43  1  0  0  0  0
 25 44  1  0  0  0  0
 25 45  1  0  0  0  0
 26 46  1  0  0  0  0
 26 47  1  0  0  0  0
 27 48  1  0  0  0  0
 28 49  1  0  0  0  0
 28 50  1  0  0  0  0
 29 51  1  0  0  0  0
 29 52  1  0  0  0  0
 30 53  1  0  0  0  0
M  END
> <Name>
30

> <IC50[uM]>
0.003

$$$$
30
  -OEChem-05192314333D
 Structure written by MMmdl.
 53 57  0     1  0  0  0  0  0999 V2000
   -6.3720   12.3564  -12.0094 C   0  0  0  0  0  0  0  0  0  0  0  0
   -6.5328   11.8103  -10.7336 C   0  0  0  0  0  0  0  0  0  0  0  0
   -7.7318   10.5755  -13.0290 C   0  0  0  0  0  0  0  0  0  0  0  0
   -6.9898   11.7633  -13.1279 C   0  0  0  0  0  0  0  0  0  0  0  0
   -7.8210   10.0065  -11.7558 C   0  0  0  0  0  0  0  0  0  0  0  0
   -7.2477   10.6184  -10.6026 C   0  0  0  0  0  0  0  0  0  0  0  0
   -7.6140    9.7458   -9.5136 C   0  0  0  0  0  0  0  0  0  0  0  0
   -8.2690    8.7218   -9.9879 N   0  0  0  0  0  0  0  0  0  0  0  0
   -8.4092    8.8538  -11.2990 N   0  0  0  0  0  0  0  0  0  0  0  0
   -7.3381    9.8926   -8.0280 C   0  0  0  0  0  0  0  0  0  0  0  0
   -4.3458   13.7121  -11.5140 N   0  0  0  0  0  0  0  0  0  0  0  0
   -5.5478   13.6364  -12.1864 C   0  0  0  0  0  0  0  0  0  0  0  0
   -5.9572   14.5395  -12.9136 O   0  0  0  0  0  0  0  0  0  0  0  0
   -5.9581   10.4851   -7.7363 C   0  0  0  0  0  0  0  0  0  0  0  0
   -4.8068    9.7633   -8.0566 C   0  0  0  0  0  0  0  0  0  0  0  0
   -3.5506   10.3101   -7.8085 C   0  0  0  0  0  0  0  0  0  0  0  0
   -3.4405   11.5856   -7.2383 C   0  0  0  0  0  0  0  0  0  0  0  0
   -4.5911   12.3019   -6.9155 C   0  0  0  0  0  0  0  0  0  0  0  0
   -5.8461   11.7538   -7.1583 C   0  0  0  0  0  0  0  0  0  0  0  0
   -2.0993   12.1777   -6.9729 C   0  0  0  0  0  0  0  0  0  0  0  0
   -1.7708   13.4214   -6.4416 C   0  0  0  0  0  0  0  0  0  0  0  0
   -0.4313   13.4856   -6.3949 N   0  0  0  0  0  0  0  0  0  0  0  0
    0.1723   12.4145   -6.8299 N   0  0  0  0  0  0  0  0  0  0  0  0
   -0.8042   11.6008   -7.2039 C   0  0  0  0  0  0  0  0  0  0  0  0
    0.3889   14.5981   -5.9187 C   0  0  0  0  0  0  0  0  0  0  0  0
   -3.6987   12.5799  -10.8351 C   0  0  0  0  0  0  0  0  0  0  0  0
   -2.1930   12.9387  -10.9658 C   0  0  2  0  0  0  0  0  0  0  0  0
   -2.1862   14.4653  -10.9438 C   0  0  0  0  0  0  0  0  0  0  0  0
   -3.5086   14.9068  -11.5988 C   0  0  0  0  0  0  0  0  0  0  0  0
   -1.6500   12.4417  -12.1854 O   0  0  0  0  0  0  0  0  0  0  0  0
   -5.4723   11.7440  -12.1691 H   0  0  0  0  0  0  0  0  0  0  0  0
   -6.1130   12.2997   -9.8672 H   0  0  0  0  0  0  0  0  0  0  0  0
   -8.2070   10.1267  -13.8888 H   0  0  0  0  0  0  0  0  0  0  0  0
   -6.8894   12.2377  -14.0929 H   0  0  0  0  0  0  0  0  0  0  0  0
   -8.0412    9.6089   -7.2589 H   0  0  0  0  0  0  0  0  0  0  0  0
   -4.8906    8.7807   -8.4969 H   0  0  0  0  0  0  0  0  0  0  0  0
   -2.6603    9.7509   -8.0557 H   0  0  0  0  0  0  0  0  0  0  0  0
   -4.5083   13.2849   -6.4758 H   0  0  0  0  0  0  0  0  0  0  0  0
   -6.3740   12.4529   -7.8236 H   0  0  0  0  0  0  0  0  0  0  0  0
   -6.3646   11.7075   -6.1893 H   0  0  0  0  0  0  0  0  0  0  0  0
   -2.4624   14.1888   -6.1268 H   0  0  0  0  0  0  0  0  0  0  0  0
   -0.6455   10.6216   -7.6310 H   0  0  0  0  0  0  0  0  0  0  0  0
    1.4531   14.3351   -6.0101 H   0  0  0  0  0  0  0  0  0  0  0  0
    0.1793   15.4930   -6.5230 H   0  0  0  0  0  0  0  0  0  0  0  0
    0.1513   14.8037   -4.8645 H   0  0  0  0  0  0  0  0  0  0  0  0
   -4.0045   12.5193   -9.7802 H   0  0  0  0  0  0  0  0  0  0  0  0
   -3.9276   11.6290  -11.3384 H   0  0  0  0  0  0  0  0  0  0  0  0
   -1.6452   12.5495  -10.0949 H   0  0  0  0  0  0  0  0  0  0  0  0
   -2.1318   14.8321   -9.9082 H   0  0  0  0  0  0  0  0  0  0  0  0
   -1.3293   14.8517  -11.5151 H   0  0  0  0  0  0  0  0  0  0  0  0
   -3.3493   15.2019  -12.6464 H   0  0  0  0  0  0  0  0  0  0  0  0
   -3.9607   15.7439  -11.0467 H   0  0  0  0  0  0  0  0  0  0  0  0
   -0.7305   12.6738  -12.2410 H   0  0  0  0  0  0  0  0  0  0  0  0
  1  2  1  0  0  0  0
  1  4  1  0  0  0  0
  1 12  1  0  0  0  0
  2  6  2  0  0  0  0
  3  4  2  0  0  0  0
  3  5  1  0  0  0  0
  5  6  1  0  0  0  0
  5  9  2  0  0  0  0
  6  7  1  0  0  0  0
  7  8  2  0  0  0  0
  7 10  1  0  0  0  0
  8  9  1  0  0  0  0
 10 14  2  0  0  0  0
 11 12  1  0  0  0  0
 11 26  1  0  0  0  0
 11 29  1  0  0  0  0
 12 13  2  0  0  0  0
 14 15  1  0  0  0  0
 14 19  1  0  0  0  0
 15 16  2  0  0  0  0
 16 17  1  0  0  0  0
 17 18  2  0  0  0  0
 17 20  1  0  0  0  0
 18 19  1  0  0  0  0
 20 21  2  0  0  0  0
 20 24  1  0  0  0  0
 21 22  1  0  0  0  0
 22 23  1  0  0  0  0
 22 25  1  0  0  0  0
 23 24  2  0  0  0  0
 26 27  1  0  0  0  0
 27 28  1  0  0  0  0
 27 30  1  0  0  0  0
 28 29  1  0  0  0  0
  1 31  1  0  0  0  0
  2 32  1  0  0  0  0
  3 33  1  0  0  0  0
  4 34  1  0  0  0  0
 10 35  1  0  0  0  0
 15 36  1  0  0  0  0
 16 37  1  0  0  0  0
 18 38  1  0  0  0  0
 19 39  1  0  0  0  0
 19 40  1  0  0  0  0
 21 41  1  0  0  0  0
 24 42  1  0  0  0  0
 25 43  1  0  0  0  0
 25 44  1  0  0  0  0
 25 45  1  0  0  0  0
 26 46  1  0  0  0  0
 26 47  1  0  0  0  0
 27 48  1  0  0  0  0
 28 49  1  0  0  0  0
 28 50  1  0  0  0  0
 29 51  1  0  0  0  0
 29 52  1  0  0  0  0
 30 53  1  0  0  0  0
M  END
> <Name>
30

> <IC50[uM]>
0.003

$$$$
30
  -OEChem-05192314333D
 Structure written by MMmdl.
 53 57  0     1  0  0  0  0  0999 V2000
   -6.3720   12.3564  -12.0094 C   0  0  0  0  0  0  0  0  0  0  0  0
   -6.5328   11.8103  -10.7336 C   0  0  0  0  0  0  0  0  0  0  0  0
   -7.7318   10.5755  -13.0290 C   0  0  0  0  0  0  0  0  0  0  0  0
   -6.9898   11.7633  -13.1279 C   0  0  0  0  0  0  0  0  0  0  0  0
   -7.8210   10.0065  -11.7558 C   0  0  0  0  0  0  0  0  0  0  0  0
   -7.2477   10.6184  -10.6026 C   0  0  0  0  0  0  0  0  0  0  0  0
   -7.6140    9.7458   -9.5136 C   0  0  0  0  0  0  0  0  0  0  0  0
   -8.2690    8.7218   -9.9879 N   0  0  0  0  0  0  0  0  0  0  0  0
   -8.4092    8.8538  -11.2990 N   0  0  0  0  0  0  0  0  0  0  0  0
   -7.3381    9.8926   -8.0280 C   0  0  0  0  0  0  0  0  0  0  0  0
   -4.3458   13.7121  -11.5140 N   0  0  0  0  0  0  0  0  0  0  0  0
   -5.5478   13.6364  -12.1864 C   0  0  0  0  0  0  0  0  0  0  0  0
   -5.9572   14.5395  -12.9136 O   0  0  0  0  0  0  0  0  0  0  0  0
   -5.9581   10.4851   -7.7363 C   0  0  0  0  0  0  0  0  0  0  0  0
   -4.8068    9.7633   -8.0566 C   0  0  0  0  0  0  0  0  0  0  0  0
   -3.5506   10.3101   -7.8085 C   0  0  0  0  0  0  0  0  0  0  0  0
   -3.4405   11.5856   -7.2383 C   0  0  0  0  0  0  0  0  0  0  0  0
   -4.5911   12.3019   -6.9155 C   0  0  0  0  0  0  0  0  0  0  0  0
   -5.8461   11.7538   -7.1583 C   0  0  0  0  0  0  0  0  0  0  0  0
   -2.0993   12.1777   -6.9729 C   0  0  0  0  0  0  0  0  0  0  0  0
   -1.7708   13.4214   -6.4416 C   0  0  0  0  0  0  0  0  0  0  0  0
   -0.4313   13.4856   -6.3949 N   0  0  0  0  0  0  0  0  0  0  0  0
    0.1723   12.4145   -6.8299 N   0  0  0  0  0  0  0  0  0  0  0  0
   -0.8042   11.6008   -7.2039 C   0  0  0  0  0  0  0  0  0  0  0  0
    0.3889   14.5981   -5.9187 C   0  0  0  0  0  0  0  0  0  0  0  0
   -3.6987   12.5799  -10.8351 C   0  0  0  0  0  0  0  0  0  0  0  0
   -2.1930   12.9387  -10.9658 C   0  0  2  0  0  0  0  0  0  0  0  0
   -2.1862   14.4653  -10.9438 C   0  0  0  0  0  0  0  0  0  0  0  0
   -3.5086   14.9068  -11.5988 C   0  0  0  0  0  0  0  0  0  0  0  0
   -1.6500   12.4417  -12.1854 O   0  0  0  0  0  0  0  0  0  0  0  0
   -6.1130   12.2997   -9.8672 H   0  0  0  0  0  0  0  0  0  0  0  0
   -8.2070   10.1267  -13.8888 H   0  0  0  0  0  0  0  0  0  0  0  0
   -6.8894   12.2377  -14.0929 H   0  0  0  0  0  0  0  0  0  0  0  0
   -6.3222   10.0437  -10.7549 H   0  0  0  0  0  0  0  0  0  0  0  0
   -8.0412    9.6089   -7.2589 H   0  0  0  0  0  0  0  0  0  0  0  0
   -4.8906    8.7807   -8.4969 H   0  0  0  0  0  0  0  0  0  0  0  0
   -2.6603    9.7509   -8.0557 H   0  0  0  0  0  0  0  0  0  0  0  0
   -4.5083   13.2849   -6.4758 H   0  0  0  0  0  0  0  0  0  0  0  0
   -6.3740   12.4529   -7.8236 H   0  0  0  0  0  0  0  0  0  0  0  0
   -6.3646   11.7075   -6.1893 H   0  0  0  0  0  0  0  0  0  0  0  0
   -2.4624   14.1888   -6.1268 H   0  0  0  0  0  0  0  0  0  0  0  0
   -0.6455   10.6216   -7.6310 H   0  0  0  0  0  0  0  0  0  0  0  0
    1.4531   14.3351   -6.0101 H   0  0  0  0  0  0  0  0  0  0  0  0
    0.1793   15.4930   -6.5230 H   0  0  0  0  0  0  0  0  0  0  0  0
    0.1513   14.8037   -4.8645 H   0  0  0  0  0  0  0  0  0  0  0  0
   -4.0045   12.5193   -9.7802 H   0  0  0  0  0  0  0  0  0  0  0  0
   -3.9276   11.6290  -11.3384 H   0  0  0  0  0  0  0  0  0  0  0  0
   -1.6452   12.5495  -10.0949 H   0  0  0  0  0  0  0  0  0  0  0  0
   -2.1318   14.8321   -9.9082 H   0  0  0  0  0  0  0  0  0  0  0  0
   -1.3293   14.8517  -11.5151 H   0  0  0  0  0  0  0  0  0  0  0  0
   -3.3493   15.2019  -12.6464 H   0  0  0  0  0  0  0  0  0  0  0  0
   -3.9607   15.7439  -11.0467 H   0  0  0  0  0  0  0  0  0  0  0  0
   -0.7305   12.6738  -12.2410 H   0  0  0  0  0  0  0  0  0  0  0  0
  1  2  2  0  0  0  0
  1  4  1  0  0  0  0
  1 12  1  0  0  0  0
  2  6  1  0  0  0  0
  3  4  2  0  0  0  0
  3  5  1  0  0  0  0
  5  6  1  0  0  0  0
  5  9  2  0  0  0  0
  6  7  1  0  0  0  0
  7  8  2  0  0  0  0
  7 10  1  0  0  0  0
  8  9  1  0  0  0  0
 10 14  2  0  0  0  0
 11 12  1  0  0  0  0
 11 26  1  0  0  0  0
 11 29  1  0  0  0  0
 12 13  2  0  0  0  0
 14 15  1  0  0  0  0
 14 19  1  0  0  0  0
 15 16  2  0  0  0  0
 16 17  1  0  0  0  0
 17 18  2  0  0  0  0
 17 20  1  0  0  0  0
 18 19  1  0  0  0  0
 20 21  2  0  0  0  0
 20 24  1  0  0  0  0
 21 22  1  0  0  0  0
 22 23  1  0  0  0  0
 22 25  1  0  0  0  0
 23 24  2  0  0  0  0
 26 27  1  0  0  0  0
 27 28  1  0  0  0  0
 27 30  1  0  0  0  0
 28 29  1  0  0  0  0
  2 31  1  0  0  0  0
  3 32  1  0  0  0  0
  4 33  1  0  0  0  0
  6 34  1  0  0  0  0
 10 35  1  0  0  0  0
 15 36  1  0  0  0  0
 16 37  1  0  0  0  0
 18 38  1  0  0  0  0
 19 39  1  0  0  0  0
 19 40  1  0  0  0  0
 21 41  1  0  0  0  0
 24 42  1  0  0  0  0
 25 43  1  0  0  0  0
 25 44  1  0  0  0  0
 25 45  1  0  0  0  0
 26 46  1  0  0  0  0
 26 47  1  0  0  0  0
 27 48  1  0  0  0  0
 28 49  1  0  0  0  0
 28 50  1  0  0  0  0
 29 51  1  0  0  0  0
 29 52  1  0  0  0  0
 30 53  1  0  0  0  0
M  END
> <Name>
30

> <IC50[uM]>
0.003

$$$$
30
  -OEChem-05192314333D
 Structure written by MMmdl.
 53 57  0     1  0  0  0  0  0999 V2000
   -6.3720   12.3564  -12.0094 C   0  0  0  0  0  0  0  0  0  0  0  0
   -6.5328   11.8103  -10.7336 C   0  0  0  0  0  0  0  0  0  0  0  0
   -7.7318   10.5755  -13.0290 C   0  0  0  0  0  0  0  0  0  0  0  0
   -6.9898   11.7633  -13.1279 C   0  0  0  0  0  0  0  0  0  0  0  0
   -7.8210   10.0065  -11.7558 C   0  0  0  0  0  0  0  0  0  0  0  0
   -7.2477   10.6184  -10.6026 C   0  0  0  0  0  0  0  0  0  0  0  0
   -7.6140    9.7458   -9.5136 C   0  0  0  0  0  0  0  0  0  0  0  0
   -8.2690    8.7218   -9.9879 N   0  0  0  0  0  0  0  0  0  0  0  0
   -8.4092    8.8538  -11.2990 N   0  0  0  0  0  0  0  0  0  0  0  0
   -7.3381    9.8926   -8.0280 C   0  0  0  0  0  0  0  0  0  0  0  0
   -4.3458   13.7121  -11.5140 N   0  0  0  0  0  0  0  0  0  0  0  0
   -5.5478   13.6364  -12.1864 C   0  0  0  0  0  0  0  0  0  0  0  0
   -5.9572   14.5395  -12.9136 O   0  0  0  0  0  0  0  0  0  0  0  0
   -5.9581   10.4851   -7.7363 C   0  0  0  0  0  0  0  0  0  0  0  0
   -4.8068    9.7633   -8.0566 C   0  0  0  0  0  0  0  0  0  0  0  0
   -3.5506   10.3101   -7.8085 C   0  0  0  0  0  0  0  0  0  0  0  0
   -3.4405   11.5856   -7.2383 C   0  0  0  0  0  0  0  0  0  0  0  0
   -4.5911   12.3019   -6.9155 C   0  0  0  0  0  0  0  0  0  0  0  0
   -5.8461   11.7538   -7.1583 C   0  0  0  0  0  0  0  0  0  0  0  0
   -2.0993   12.1777   -6.9729 C   0  0  0  0  0  0  0  0  0  0  0  0
   -1.7708   13.4214   -6.4416 C   0  0  0  0  0  0  0  0  0  0  0  0
   -0.4313   13.4856   -6.3949 N   0  0  0  0  0  0  0  0  0  0  0  0
    0.1723   12.4145   -6.8299 N   0  0  0  0  0  0  0  0  0  0  0  0
   -0.8042   11.6008   -7.2039 C   0  0  0  0  0  0  0  0  0  0  0  0
    0.3889   14.5981   -5.9187 C   0  0  0  0  0  0  0  0  0  0  0  0
   -3.6987   12.5799  -10.8351 C   0  0  0  0  0  0  0  0  0  0  0  0
   -2.1930   12.9387  -10.9658 C   0  0  2  0  0  0  0  0  0  0  0  0
   -2.1862   14.4653  -10.9438 C   0  0  0  0  0  0  0  0  0  0  0  0
   -3.5086   14.9068  -11.5988 C   0  0  0  0  0  0  0  0  0  0  0  0
   -1.6500   12.4417  -12.1854 O   0  0  0  0  0  0  0  0  0  0  0  0
   -6.1130   12.2997   -9.8672 H   0  0  0  0  0  0  0  0  0  0  0  0
   -8.7545   10.7893  -13.3731 H   0  0  0  0  0  0  0  0  0  0  0  0
   -7.2680    9.8339  -13.6960 H   0  0  0  0  0  0  0  0  0  0  0  0
   -6.8894   12.2377  -14.0929 H   0  0  0  0  0  0  0  0  0  0  0  0
   -8.0412    9.6089   -7.2589 H   0  0  0  0  0  0  0  0  0  0  0  0
   -4.8906    8.7807   -8.4969 H   0  0  0  0  0  0  0  0  0  0  0  0
   -2.6603    9.7509   -8.0557 H   0  0  0  0  0  0  0  0  0  0  0  0
   -4.5083   13.2849   -6.4758 H   0  0  0  0  0  0  0  0  0  0  0  0
   -6.3740   12.4529   -7.8236 H   0  0  0  0  0  0  0  0  0  0  0  0
   -6.3646   11.7075   -6.1893 H   0  0  0  0  0  0  0  0  0  0  0  0
   -2.4624   14.1888   -6.1268 H   0  0  0  0  0  0  0  0  0  0  0  0
   -0.6455   10.6216   -7.6310 H   0  0  0  0  0  0  0  0  0  0  0  0
    1.4531   14.3351   -6.0101 H   0  0  0  0  0  0  0  0  0  0  0  0
    0.1793   15.4930   -6.5230 H   0  0  0  0  0  0  0  0  0  0  0  0
    0.1513   14.8037   -4.8645 H   0  0  0  0  0  0  0  0  0  0  0  0
   -4.0045   12.5193   -9.7802 H   0  0  0  0  0  0  0  0  0  0  0  0
   -3.9276   11.6290  -11.3384 H   0  0  0  0  0  0  0  0  0  0  0  0
   -1.6452   12.5495  -10.0949 H   0  0  0  0  0  0  0  0  0  0  0  0
   -2.1318   14.8321   -9.9082 H   0  0  0  0  0  0  0  0  0  0  0  0
   -1.3293   14.8517  -11.5151 H   0  0  0  0  0  0  0  0  0  0  0  0
   -3.3493   15.2019  -12.6464 H   0  0  0  0  0  0  0  0  0  0  0  0
   -3.9607   15.7439  -11.0467 H   0  0  0  0  0  0  0  0  0  0  0  0
   -0.7305   12.6738  -12.2410 H   0  0  0  0  0  0  0  0  0  0  0  0
  1  2  1  0  0  0  0
  1  4  2  0  0  0  0
  1 12  1  0  0  0  0
  2  6  2  0  0  0  0
  3  4  1  0  0  0  0
  3  5  1  0  0  0  0
  5  6  1  0  0  0  0
  5  9  2  0  0  0  0
  6  7  1  0  0  0  0
  7  8  2  0  0  0  0
  7 10  1  0  0  0  0
  8  9  1  0  0  0  0
 10 14  2  0  0  0  0
 11 12  1  0  0  0  0
 11 26  1  0  0  0  0
 11 29  1  0  0  0  0
 12 13  2  0  0  0  0
 14 15  1  0  0  0  0
 14 19  1  0  0  0  0
 15 16  2  0  0  0  0
 16 17  1  0  0  0  0
 17 18  2  0  0  0  0
 17 20  1  0  0  0  0
 18 19  1  0  0  0  0
 20 21  2  0  0  0  0
 20 24  1  0  0  0  0
 21 22  1  0  0  0  0
 22 23  1  0  0  0  0
 22 25  1  0  0  0  0
 23 24  2  0  0  0  0
 26 27  1  0  0  0  0
 27 28  1  0  0  0  0
 27 30  1  0  0  0  0
 28 29  1  0  0  0  0
  2 31  1  0  0  0  0
  3 32  1  0  0  0  0
  3 33  1  0  0  0  0
  4 34  1  0  0  0  0
 10 35  1  0  0  0  0
 15 36  1  0  0  0  0
 16 37  1  0  0  0  0
 18 38  1  0  0  0  0
 19 39  1  0  0  0  0
 19 40  1  0  0  0  0
 21 41  1  0  0  0  0
 24 42  1  0  0  0  0
 25 43  1  0  0  0  0
 25 44  1  0  0  0  0
 25 45  1  0  0  0  0
 26 46  1  0  0  0  0
 26 47  1  0  0  0  0
 27 48  1  0  0  0  0
 28 49  1  0  0  0  0
 28 50  1  0  0  0  0
 29 51  1  0  0  0  0
 29 52  1  0  0  0  0
 30 53  1  0  0  0  0
M  END
> <Name>
30

> <IC50[uM]>
0.003

$$$$
30
  -OEChem-05192314333D
 Structure written by MMmdl.
 53 57  0     1  0  0  0  0  0999 V2000
   -6.3720   12.3564  -12.0094 C   0  0  0  0  0  0  0  0  0  0  0  0
   -6.5328   11.8103  -10.7336 C   0  0  0  0  0  0  0  0  0  0  0  0
   -7.7318   10.5755  -13.0290 C   0  0  0  0  0  0  0  0  0  0  0  0
   -6.9898   11.7633  -13.1279 C   0  0  0  0  0  0  0  0  0  0  0  0
   -7.8210   10.0065  -11.7558 C   0  0  0  0  0  0  0  0  0  0  0  0
   -7.2477   10.6184  -10.6026 C   0  0  0  0  0  0  0  0  0  0  0  0
   -7.6140    9.7458   -9.5136 C   0  0  0  0  0  0  0  0  0  0  0  0
   -8.2690    8.7218   -9.9879 N   0  0  0  0  0  0  0  0  0  0  0  0
   -8.4092    8.8538  -11.2990 N   0  0  0  0  0  0  0  0  0  0  0  0
   -7.3381    9.8926   -8.0280 C   0  0  0  0  0  0  0  0  0  0  0  0
   -4.3458   13.7121  -11.5140 N   0  0  0  0  0  0  0  0  0  0  0  0
   -5.5478   13.6364  -12.1864 C   0  0  0  0  0  0  0  0  0  0  0  0
   -5.9572   14.5395  -12.9136 O   0  0  0  0  0  0  0  0  0  0  0  0
   -5.9581   10.4851   -7.7363 C   0  0  0  0  0  0  0  0  0  0  0  0
   -4.8068    9.7633   -8.0566 C   0  0  0  0  0  0  0  0  0  0  0  0
   -3.5506   10.3101   -7.8085 C   0  0  0  0  0  0  0  0  0  0  0  0
   -3.4405   11.5856   -7.2383 C   0  0  0  0  0  0  0  0  0  0  0  0
   -4.5911   12.3019   -6.9155 C   0  0  0  0  0  0  0  0  0  0  0  0
   -5.8461   11.7538   -7.1583 C   0  0  0  0  0  0  0  0  0  0  0  0
   -2.0993   12.1777   -6.9729 C   0  0  0  0  0  0  0  0  0  0  0  0
   -1.7708   13.4214   -6.4416 C   0  0  0  0  0  0  0  0  0  0  0  0
   -0.4313   13.4856   -6.3949 N   0  0  0  0  0  0  0  0  0  0  0  0
    0.1723   12.4145   -6.8299 N   0  0  0  0  0  0  0  0  0  0  0  0
   -0.8042   11.6008   -7.2039 C   0  0  0  0  0  0  0  0  0  0  0  0
    0.3889   14.5981   -5.9187 C   0  0  0  0  0  0  0  0  0  0  0  0
   -3.6987   12.5799  -10.8351 C   0  0  0  0  0  0  0  0  0  0  0  0
   -2.1930   12.9387  -10.9658 C   0  0  2  0  0  0  0  0  0  0  0  0
   -2.1862   14.4653  -10.9438 C   0  0  0  0  0  0  0  0  0  0  0  0
   -3.5086   14.9068  -11.5988 C   0  0  0  0  0  0  0  0  0  0  0  0
   -1.6500   12.4417  -12.1854 O   0  0  0  0  0  0  0  0  0  0  0  0
   -6.1130   12.2997   -9.8672 H   0  0  0  0  0  0  0  0  0  0  0  0
   -8.2070   10.1267  -13.8888 H   0  0  0  0  0  0  0  0  0  0  0  0
   -6.8894   12.2377  -14.0929 H   0  0  0  0  0  0  0  0  0  0  0  0
   -6.8834    9.4593  -11.9332 H   0  0  0  0  0  0  0  0  0  0  0  0
   -8.0412    9.6089   -7.2589 H   0  0  0  0  0  0  0  0  0  0  0  0
   -4.8906    8.7807   -8.4969 H   0  0  0  0  0  0  0  0  0  0  0  0
   -2.6603    9.7509   -8.0557 H   0  0  0  0  0  0  0  0  0  0  0  0
   -3.4412   12.0353   -8.2422 H   0  0  0  0  0  0  0  0  0  0  0  0
   -4.5083   13.2849   -6.4758 H   0  0  0  0  0  0  0  0  0  0  0  0
   -6.7358   12.3089   -6.9000 H   0  0  0  0  0  0  0  0  0  0  0  0
   -2.4624   14.1888   -6.1268 H   0  0  0  0  0  0  0  0  0  0  0  0
   -0.6455   10.6216   -7.6310 H   0  0  0  0  0  0  0  0  0  0  0  0
    1.4531   14.3351   -6.0101 H   0  0  0  0  0  0  0  0  0  0  0  0
    0.1793   15.4930   -6.5230 H   0  0  0  0  0  0  0  0  0  0  0  0
    0.1513   14.8037   -4.8645 H   0  0  0  0  0  0  0  0  0  0  0  0
   -4.0045   12.5193   -9.7802 H   0  0  0  0  0  0  0  0  0  0  0  0
   -3.9276   11.6290  -11.3384 H   0  0  0  0  0  0  0  0  0  0  0  0
   -1.6452   12.5495  -10.0949 H   0  0  0  0  0  0  0  0  0  0  0  0
   -2.1318   14.8321   -9.9082 H   0  0  0  0  0  0  0  0  0  0  0  0
   -1.3293   14.8517  -11.5151 H   0  0  0  0  0  0  0  0  0  0  0  0
   -3.3493   15.2019  -12.6464 H   0  0  0  0  0  0  0  0  0  0  0  0
   -3.9607   15.7439  -11.0467 H   0  0  0  0  0  0  0  0  0  0  0  0
   -0.7305   12.6738  -12.2410 H   0  0  0  0  0  0  0  0  0  0  0  0
  1  2  2  0  0  0  0
  1  4  1  0  0  0  0
  1 12  1  0  0  0  0
  2  6  1  0  0  0  0
  3  4  2  0  0  0  0
  3  5  1  0  0  0  0
  5  6  1  0  0  0  0
  5  9  1  0  0  0  0
  6  7  2  0  0  0  0
  7  8  1  0  0  0  0
  7 10  1  0  0  0  0
  8  9  2  0  0  0  0
 10 14  2  0  0  0  0
 11 12  1  0  0  0  0
 11 26  1  0  0  0  0
 11 29  1  0  0  0  0
 12 13  2  0  0  0  0
 14 15  1  0  0  0  0
 14 19  1  0  0  0  0
 15 16  2  0  0  0  0
 16 17  1  0  0  0  0
 17 18  1  0  0  0  0
 17 20  1  0  0  0  0
 18 19  2  0  0  0  0
 20 21  2  0  0  0  0
 20 24  1  0  0  0  0
 21 22  1  0  0  0  0
 22 23  1  0  0  0  0
 22 25  1  0  0  0  0
 23 24  2  0  0  0  0
 26 27  1  0  0  0  0
 27 28  1  0  0  0  0
 27 30  1  0  0  0  0
 28 29  1  0  0  0  0
  2 31  1  0  0  0  0
  3 32  1  0  0  0  0
  4 33  1  0  0  0  0
  5 34  1  0  0  0  0
 10 35  1  0  0  0  0
 15 36  1  0  0  0  0
 16 37  1  0  0  0  0
 17 38  1  0  0  0  0
 18 39  1  0  0  0  0
 19 40  1  0  0  0  0
 21 41  1  0  0  0  0
 24 42  1  0  0  0  0
 25 43  1  0  0  0  0
 25 44  1  0  0  0  0
 25 45  1  0  0  0  0
 26 46  1  0  0  0  0
 26 47  1  0  0  0  0
 27 48  1  0  0  0  0
 28 49  1  0  0  0  0
 28 50  1  0  0  0  0
 29 51  1  0  0  0  0
 29 52  1  0  0  0  0
 30 53  1  0  0  0  0
M  END
> <Name>
30

> <IC50[uM]>
0.003

$$$$
30
  -OEChem-05192314333D
 Structure written by MMmdl.
 53 57  0     1  0  0  0  0  0999 V2000
   -6.3720   12.3564  -12.0094 C   0  0  0  0  0  0  0  0  0  0  0  0
   -6.5328   11.8103  -10.7336 C   0  0  0  0  0  0  0  0  0  0  0  0
   -7.7318   10.5755  -13.0290 C   0  0  0  0  0  0  0  0  0  0  0  0
   -6.9898   11.7633  -13.1279 C   0  0  0  0  0  0  0  0  0  0  0  0
   -7.8210   10.0065  -11.7558 C   0  0  0  0  0  0  0  0  0  0  0  0
   -7.2477   10.6184  -10.6026 C   0  0  0  0  0  0  0  0  0  0  0  0
   -7.6140    9.7458   -9.5136 C   0  0  0  0  0  0  0  0  0  0  0  0
   -8.2690    8.7218   -9.9879 N   0  0  0  0  0  0  0  0  0  0  0  0
   -8.4092    8.8538  -11.2990 N   0  0  0  0  0  0  0  0  0  0  0  0
   -7.3381    9.8926   -8.0280 C   0  0  0  0  0  0  0  0  0  0  0  0
   -4.3458   13.7121  -11.5140 N   0  0  0  0  0  0  0  0  0  0  0  0
   -5.5478   13.6364  -12.1864 C   0  0  0  0  0  0  0  0  0  0  0  0
   -5.9572   14.5395  -12.9136 O   0  0  0  0  0  0  0  0  0  0  0  0
   -5.9581   10.4851   -7.7363 C   0  0  0  0  0  0  0  0  0  0  0  0
   -4.8068    9.7633   -8.0566 C   0  0  0  0  0  0  0  0  0  0  0  0
   -3.5506   10.3101   -7.8085 C   0  0  0  0  0  0  0  0  0  0  0  0
   -3.4405   11.5856   -7.2383 C   0  0  0  0  0  0  0  0  0  0  0  0
   -4.5911   12.3019   -6.9155 C   0  0  0  0  0  0  0  0  0  0  0  0
   -5.8461   11.7538   -7.1583 C   0  0  0  0  0  0  0  0  0  0  0  0
   -2.0993   12.1777   -6.9729 C   0  0  0  0  0  0  0  0  0  0  0  0
   -1.7708   13.4214   -6.4416 C   0  0  0  0  0  0  0  0  0  0  0  0
   -0.4313   13.4856   -6.3949 N   0  0  0  0  0  0  0  0  0  0  0  0
    0.1723   12.4145   -6.8299 N   0  0  0  0  0  0  0  0  0  0  0  0
   -0.8042   11.6008   -7.2039 C   0  0  0  0  0  0  0  0  0  0  0  0
    0.3889   14.5981   -5.9187 C   0  0  0  0  0  0  0  0  0  0  0  0
   -3.6987   12.5799  -10.8351 C   0  0  0  0  0  0  0  0  0  0  0  0
   -2.1930   12.9387  -10.9658 C   0  0  2  0  0  0  0  0  0  0  0  0
   -2.1862   14.4653  -10.9438 C   0  0  0  0  0  0  0  0  0  0  0  0
   -3.5086   14.9068  -11.5988 C   0  0  0  0  0  0  0  0  0  0  0  0
   -1.6500   12.4417  -12.1854 O   0  0  0  0  0  0  0  0  0  0  0  0
   -6.1130   12.2997   -9.8672 H   0  0  0  0  0  0  0  0  0  0  0  0
   -8.2070   10.1267  -13.8888 H   0  0  0  0  0  0  0  0  0  0  0  0
   -7.6747   12.5202  -13.5378 H   0  0  0  0  0  0  0  0  0  0  0  0
   -6.1868   11.5644  -13.8529 H   0  0  0  0  0  0  0  0  0  0  0  0
   -8.0412    9.6089   -7.2589 H   0  0  0  0  0  0  0  0  0  0  0  0
   -4.8906    8.7807   -8.4969 H   0  0  0  0  0  0  0  0  0  0  0  0
   -2.6603    9.7509   -8.0557 H   0  0  0  0  0  0  0  0  0  0  0  0
   -3.4412   12.0353   -8.2422 H   0  0  0  0  0  0  0  0  0  0  0  0
   -4.5083   13.2849   -6.4758 H   0  0  0  0  0  0  0  0  0  0  0  0
   -6.7358   12.3089   -6.9000 H   0  0  0  0  0  0  0  0  0  0  0  0
   -2.4624   14.1888   -6.1268 H   0  0  0  0  0  0  0  0  0  0  0  0
   -0.6455   10.6216   -7.6310 H   0  0  0  0  0  0  0  0  0  0  0  0
    1.4531   14.3351   -6.0101 H   0  0  0  0  0  0  0  0  0  0  0  0
    0.1793   15.4930   -6.5230 H   0  0  0  0  0  0  0  0  0  0  0  0
    0.1513   14.8037   -4.8645 H   0  0  0  0  0  0  0  0  0  0  0  0
   -4.0045   12.5193   -9.7802 H   0  0  0  0  0  0  0  0  0  0  0  0
   -3.9276   11.6290  -11.3384 H   0  0  0  0  0  0  0  0  0  0  0  0
   -1.6452   12.5495  -10.0949 H   0  0  0  0  0  0  0  0  0  0  0  0
   -2.1318   14.8321   -9.9082 H   0  0  0  0  0  0  0  0  0  0  0  0
   -1.3293   14.8517  -11.5151 H   0  0  0  0  0  0  0  0  0  0  0  0
   -3.3493   15.2019  -12.6464 H   0  0  0  0  0  0  0  0  0  0  0  0
   -3.9607   15.7439  -11.0467 H   0  0  0  0  0  0  0  0  0  0  0  0
   -0.7305   12.6738  -12.2410 H   0  0  0  0  0  0  0  0  0  0  0  0
  1  2  2  0  0  0  0
  1  4  1  0  0  0  0
  1 12  1  0  0  0  0
  2  6  1  0  0  0  0
  3  4  1  0  0  0  0
  3  5  2  0  0  0  0
  5  6  1  0  0  0  0
  5  9  1  0  0  0  0
  6  7  2  0  0  0  0
  7  8  1  0  0  0  0
  7 10  1  0  0  0  0
  8  9  2  0  0  0  0
 10 14  2  0  0  0  0
 11 12  1  0  0  0  0
 11 26  1  0  0  0  0
 11 29  1  0  0  0  0
 12 13  2  0  0  0  0
 14 15  1  0  0  0  0
 14 19  1  0  0  0  0
 15 16  2  0  0  0  0
 16 17  1  0  0  0  0
 17 18  1  0  0  0  0
 17 20  1  0  0  0  0
 18 19  2  0  0  0  0
 20 21  2  0  0  0  0
 20 24  1  0  0  0  0
 21 22  1  0  0  0  0
 22 23  1  0  0  0  0
 22 25  1  0  0  0  0
 23 24  2  0  0  0  0
 26 27  1  0  0  0  0
 27 28  1  0  0  0  0
 27 30  1  0  0  0  0
 28 29  1  0  0  0  0
  2 31  1  0  0  0  0
  3 32  1  0  0  0  0
  4 33  1  0  0  0  0
  4 34  1  0  0  0  0
 10 35  1  0  0  0  0
 15 36  1  0  0  0  0
 16 37  1  0  0  0  0
 17 38  1  0  0  0  0
 18 39  1  0  0  0  0
 19 40  1  0  0  0  0
 21 41  1  0  0  0  0
 24 42  1  0  0  0  0
 25 43  1  0  0  0  0
 25 44  1  0  0  0  0
 25 45  1  0  0  0  0
 26 46  1  0  0  0  0
 26 47  1  0  0  0  0
 27 48  1  0  0  0  0
 28 49  1  0  0  0  0
 28 50  1  0  0  0  0
 29 51  1  0  0  0  0
 29 52  1  0  0  0  0
 30 53  1  0  0  0  0
M  END
> <Name>
30

> <IC50[uM]>
0.003

$$$$
30
  -OEChem-05192314333D
 Structure written by MMmdl.
 53 57  0     1  0  0  0  0  0999 V2000
   -6.3720   12.3564  -12.0094 C   0  0  0  0  0  0  0  0  0  0  0  0
   -6.5328   11.8103  -10.7336 C   0  0  0  0  0  0  0  0  0  0  0  0
   -7.7318   10.5755  -13.0290 C   0  0  0  0  0  0  0  0  0  0  0  0
   -6.9898   11.7633  -13.1279 C   0  0  0  0  0  0  0  0  0  0  0  0
   -7.8210   10.0065  -11.7558 C   0  0  0  0  0  0  0  0  0  0  0  0
   -7.2477   10.6184  -10.6026 C   0  0  0  0  0  0  0  0  0  0  0  0
   -7.6140    9.7458   -9.5136 C   0  0  0  0  0  0  0  0  0  0  0  0
   -8.2690    8.7218   -9.9879 N   0  0  0  0  0  0  0  0  0  0  0  0
   -8.4092    8.8538  -11.2990 N   0  0  0  0  0  0  0  0  0  0  0  0
   -7.3381    9.8926   -8.0280 C   0  0  0  0  0  0  0  0  0  0  0  0
   -4.3458   13.7121  -11.5140 N   0  0  0  0  0  0  0  0  0  0  0  0
   -5.5478   13.6364  -12.1864 C   0  0  0  0  0  0  0  0  0  0  0  0
   -5.9572   14.5395  -12.9136 O   0  0  0  0  0  0  0  0  0  0  0  0
   -5.9581   10.4851   -7.7363 C   0  0  0  0  0  0  0  0  0  0  0  0
   -4.8068    9.7633   -8.0566 C   0  0  0  0  0  0  0  0  0  0  0  0
   -3.5506   10.3101   -7.8085 C   0  0  0  0  0  0  0  0  0  0  0  0
   -3.4405   11.5856   -7.2383 C   0  0  0  0  0  0  0  0  0  0  0  0
   -4.5911   12.3019   -6.9155 C   0  0  0  0  0  0  0  0  0  0  0  0
   -5.8461   11.7538   -7.1583 C   0  0  0  0  0  0  0  0  0  0  0  0
   -2.0993   12.1777   -6.9729 C   0  0  0  0  0  0  0  0  0  0  0  0
   -1.7708   13.4214   -6.4416 C   0  0  0  0  0  0  0  0  0  0  0  0
   -0.4313   13.4856   -6.3949 N   0  0  0  0  0  0  0  0  0  0  0  0
    0.1723   12.4145   -6.8299 N   0  0  0  0  0  0  0  0  0  0  0  0
   -0.8042   11.6008   -7.2039 C   0  0  0  0  0  0  0  0  0  0  0  0
    0.3889   14.5981   -5.9187 C   0  0  0  0  0  0  0  0  0  0  0  0
   -3.6987   12.5799  -10.8351 C   0  0  0  0  0  0  0  0  0  0  0  0
   -2.1930   12.9387  -10.9658 C   0  0  2  0  0  0  0  0  0  0  0  0
   -2.1862   14.4653  -10.9438 C   0  0  0  0  0  0  0  0  0  0  0  0
   -3.5086   14.9068  -11.5988 C   0  0  0  0  0  0  0  0  0  0  0  0
   -1.6500   12.4417  -12.1854 O   0  0  0  0  0  0  0  0  0  0  0  0
   -6.1130   12.2997   -9.8672 H   0  0  0  0  0  0  0  0  0  0  0  0
   -8.2070   10.1267  -13.8888 H   0  0  0  0  0  0  0  0  0  0  0  0
   -6.8894   12.2377  -14.0929 H   0  0  0  0  0  0  0  0  0  0  0  0
   -6.8834    9.4593  -11.9332 H   0  0  0  0  0  0  0  0  0  0  0  0
   -8.0412    9.6089   -7.2589 H   0  0  0  0  0  0  0  0  0  0  0  0
   -4.8906    8.7807   -8.4969 H   0  0  0  0  0  0  0  0  0  0  0  0
   -2.6603    9.7509   -8.0557 H   0  0  0  0  0  0  0  0  0  0  0  0
   -4.5083   13.2849   -6.4758 H   0  0  0  0  0  0  0  0  0  0  0  0
   -6.3740   12.4529   -7.8236 H   0  0  0  0  0  0  0  0  0  0  0  0
   -6.3646   11.7075   -6.1893 H   0  0  0  0  0  0  0  0  0  0  0  0
   -2.4624   14.1888   -6.1268 H   0  0  0  0  0  0  0  0  0  0  0  0
   -0.6455   10.6216   -7.6310 H   0  0  0  0  0  0  0  0  0  0  0  0
    1.4531   14.3351   -6.0101 H   0  0  0  0  0  0  0  0  0  0  0  0
    0.1793   15.4930   -6.5230 H   0  0  0  0  0  0  0  0  0  0  0  0
    0.1513   14.8037   -4.8645 H   0  0  0  0  0  0  0  0  0  0  0  0
   -4.0045   12.5193   -9.7802 H   0  0  0  0  0  0  0  0  0  0  0  0
   -3.9276   11.6290  -11.3384 H   0  0  0  0  0  0  0  0  0  0  0  0
   -1.6452   12.5495  -10.0949 H   0  0  0  0  0  0  0  0  0  0  0  0
   -2.1318   14.8321   -9.9082 H   0  0  0  0  0  0  0  0  0  0  0  0
   -1.3293   14.8517  -11.5151 H   0  0  0  0  0  0  0  0  0  0  0  0
   -3.3493   15.2019  -12.6464 H   0  0  0  0  0  0  0  0  0  0  0  0
   -3.9607   15.7439  -11.0467 H   0  0  0  0  0  0  0  0  0  0  0  0
   -0.7305   12.6738  -12.2410 H   0  0  0  0  0  0  0  0  0  0  0  0
  1  2  2  0  0  0  0
  1  4  1  0  0  0  0
  1 12  1  0  0  0  0
  2  6  1  0  0  0  0
  3  4  2  0  0  0  0
  3  5  1  0  0  0  0
  5  6  1  0  0  0  0
  5  9  1  0  0  0  0
  6  7  2  0  0  0  0
  7  8  1  0  0  0  0
  7 10  1  0  0  0  0
  8  9  2  0  0  0  0
 10 14  2  0  0  0  0
 11 12  1  0  0  0  0
 11 26  1  0  0  0  0
 11 29  1  0  0  0  0
 12 13  2  0  0  0  0
 14 15  1  0  0  0  0
 14 19  1  0  0  0  0
 15 16  2  0  0  0  0
 16 17  1  0  0  0  0
 17 18  2  0  0  0  0
 17 20  1  0  0  0  0
 18 19  1  0  0  0  0
 20 21  2  0  0  0  0
 20 24  1  0  0  0  0
 21 22  1  0  0  0  0
 22 23  1  0  0  0  0
 22 25  1  0  0  0  0
 23 24  2  0  0  0  0
 26 27  1  0  0  0  0
 27 28  1  0  0  0  0
 27 30  1  0  0  0  0
 28 29  1  0  0  0  0
  2 31  1  0  0  0  0
  3 32  1  0  0  0  0
  4 33  1  0  0  0  0
  5 34  1  0  0  0  0
 10 35  1  0  0  0  0
 15 36  1  0  0  0  0
 16 37  1  0  0  0  0
 18 38  1  0  0  0  0
 19 39  1  0  0  0  0
 19 40  1  0  0  0  0
 21 41  1  0  0  0  0
 24 42  1  0  0  0  0
 25 43  1  0  0  0  0
 25 44  1  0  0  0  0
 25 45  1  0  0  0  0
 26 46  1  0  0  0  0
 26 47  1  0  0  0  0
 27 48  1  0  0  0  0
 28 49  1  0  0  0  0
 28 50  1  0  0  0  0
 29 51  1  0  0  0  0
 29 52  1  0  0  0  0
 30 53  1  0  0  0  0
M  END
> <Name>
30

> <IC50[uM]>
0.003

$$$$
30
  -OEChem-05192314333D
 Structure written by MMmdl.
 53 57  0     1  0  0  0  0  0999 V2000
   -6.3720   12.3564  -12.0094 C   0  0  0  0  0  0  0  0  0  0  0  0
   -6.5328   11.8103  -10.7336 C   0  0  0  0  0  0  0  0  0  0  0  0
   -7.7318   10.5755  -13.0290 C   0  0  0  0  0  0  0  0  0  0  0  0
   -6.9898   11.7633  -13.1279 C   0  0  0  0  0  0  0  0  0  0  0  0
   -7.8210   10.0065  -11.7558 C   0  0  0  0  0  0  0  0  0  0  0  0
   -7.2477   10.6184  -10.6026 C   0  0  0  0  0  0  0  0  0  0  0  0
   -7.6140    9.7458   -9.5136 C   0  0  0  0  0  0  0  0  0  0  0  0
   -8.2690    8.7218   -9.9879 N   0  0  0  0  0  0  0  0  0  0  0  0
   -8.4092    8.8538  -11.2990 N   0  0  0  0  0  0  0  0  0  0  0  0
   -7.3381    9.8926   -8.0280 C   0  0  0  0  0  0  0  0  0  0  0  0
   -4.3458   13.7121  -11.5140 N   0  0  0  0  0  0  0  0  0  0  0  0
   -5.5478   13.6364  -12.1864 C   0  0  0  0  0  0  0  0  0  0  0  0
   -5.9572   14.5395  -12.9136 O   0  0  0  0  0  0  0  0  0  0  0  0
   -5.9581   10.4851   -7.7363 C   0  0  0  0  0  0  0  0  0  0  0  0
   -4.8068    9.7633   -8.0566 C   0  0  0  0  0  0  0  0  0  0  0  0
   -3.5506   10.3101   -7.8085 C   0  0  0  0  0  0  0  0  0  0  0  0
   -3.4405   11.5856   -7.2383 C   0  0  0  0  0  0  0  0  0  0  0  0
   -4.5911   12.3019   -6.9155 C   0  0  0  0  0  0  0  0  0  0  0  0
   -5.8461   11.7538   -7.1583 C   0  0  0  0  0  0  0  0  0  0  0  0
   -2.0993   12.1777   -6.9729 C   0  0  0  0  0  0  0  0  0  0  0  0
   -1.7708   13.4214   -6.4416 C   0  0  0  0  0  0  0  0  0  0  0  0
   -0.4313   13.4856   -6.3949 N   0  0  0  0  0  0  0  0  0  0  0  0
    0.1723   12.4145   -6.8299 N   0  0  0  0  0  0  0  0  0  0  0  0
   -0.8042   11.6008   -7.2039 C   0  0  0  0  0  0  0  0  0  0  0  0
    0.3889   14.5981   -5.9187 C   0  0  0  0  0  0  0  0  0  0  0  0
   -3.6987   12.5799  -10.8351 C   0  0  0  0  0  0  0  0  0  0  0  0
   -2.1930   12.9387  -10.9658 C   0  0  2  0  0  0  0  0  0  0  0  0
   -2.1862   14.4653  -10.9438 C   0  0  0  0  0  0  0  0  0  0  0  0
   -3.5086   14.9068  -11.5988 C   0  0  0  0  0  0  0  0  0  0  0  0
   -1.6500   12.4417  -12.1854 O   0  0  0  0  0  0  0  0  0  0  0  0
   -6.1130   12.2997   -9.8672 H   0  0  0  0  0  0  0  0  0  0  0  0
   -8.2070   10.1267  -13.8888 H   0  0  0  0  0  0  0  0  0  0  0  0
   -7.6747   12.5202  -13.5378 H   0  0  0  0  0  0  0  0  0  0  0  0
   -6.1868   11.5644  -13.8529 H   0  0  0  0  0  0  0  0  0  0  0  0
   -8.0412    9.6089   -7.2589 H   0  0  0  0  0  0  0  0  0  0  0  0
   -4.8906    8.7807   -8.4969 H   0  0  0  0  0  0  0  0  0  0  0  0
   -2.6603    9.7509   -8.0557 H   0  0  0  0  0  0  0  0  0  0  0  0
   -4.5083   13.2849   -6.4758 H   0  0  0  0  0  0  0  0  0  0  0  0
   -6.3740   12.4529   -7.8236 H   0  0  0  0  0  0  0  0  0  0  0  0
   -6.3646   11.7075   -6.1893 H   0  0  0  0  0  0  0  0  0  0  0  0
   -2.4624   14.1888   -6.1268 H   0  0  0  0  0  0  0  0  0  0  0  0
   -0.6455   10.6216   -7.6310 H   0  0  0  0  0  0  0  0  0  0  0  0
    1.4531   14.3351   -6.0101 H   0  0  0  0  0  0  0  0  0  0  0  0
    0.1793   15.4930   -6.5230 H   0  0  0  0  0  0  0  0  0  0  0  0
    0.1513   14.8037   -4.8645 H   0  0  0  0  0  0  0  0  0  0  0  0
   -4.0045   12.5193   -9.7802 H   0  0  0  0  0  0  0  0  0  0  0  0
   -3.9276   11.6290  -11.3384 H   0  0  0  0  0  0  0  0  0  0  0  0
   -1.6452   12.5495  -10.0949 H   0  0  0  0  0  0  0  0  0  0  0  0
   -2.1318   14.8321   -9.9082 H   0  0  0  0  0  0  0  0  0  0  0  0
   -1.3293   14.8517  -11.5151 H   0  0  0  0  0  0  0  0  0  0  0  0
   -3.3493   15.2019  -12.6464 H   0  0  0  0  0  0  0  0  0  0  0  0
   -3.9607   15.7439  -11.0467 H   0  0  0  0  0  0  0  0  0  0  0  0
   -0.7305   12.6738  -12.2410 H   0  0  0  0  0  0  0  0  0  0  0  0
  1  2  2  0  0  0  0
  1  4  1  0  0  0  0
  1 12  1  0  0  0  0
  2  6  1  0  0  0  0
  3  4  1  0  0  0  0
  3  5  2  0  0  0  0
  5  6  1  0  0  0  0
  5  9  1  0  0  0  0
  6  7  2  0  0  0  0
  7  8  1  0  0  0  0
  7 10  1  0  0  0  0
  8  9  2  0  0  0  0
 10 14  2  0  0  0  0
 11 12  1  0  0  0  0
 11 26  1  0  0  0  0
 11 29  1  0  0  0  0
 12 13  2  0  0  0  0
 14 15  1  0  0  0  0
 14 19  1  0  0  0  0
 15 16  2  0  0  0  0
 16 17  1  0  0  0  0
 17 18  2  0  0  0  0
 17 20  1  0  0  0  0
 18 19  1  0  0  0  0
 20 21  2  0  0  0  0
 20 24  1  0  0  0  0
 21 22  1  0  0  0  0
 22 23  1  0  0  0  0
 22 25  1  0  0  0  0
 23 24  2  0  0  0  0
 26 27  1  0  0  0  0
 27 28  1  0  0  0  0
 27 30  1  0  0  0  0
 28 29  1  0  0  0  0
  2 31  1  0  0  0  0
  3 32  1  0  0  0  0
  4 33  1  0  0  0  0
  4 34  1  0  0  0  0
 10 35  1  0  0  0  0
 15 36  1  0  0  0  0
 16 37  1  0  0  0  0
 18 38  1  0  0  0  0
 19 39  1  0  0  0  0
 19 40  1  0  0  0  0
 21 41  1  0  0  0  0
 24 42  1  0  0  0  0
 25 43  1  0  0  0  0
 25 44  1  0  0  0  0
 25 45  1  0  0  0  0
 26 46  1  0  0  0  0
 26 47  1  0  0  0  0
 27 48  1  0  0  0  0
 28 49  1  0  0  0  0
 28 50  1  0  0  0  0
 29 51  1  0  0  0  0
 29 52  1  0  0  0  0
 30 53  1  0  0  0  0
M  END
> <Name>
30

> <IC50[uM]>
0.003

$$$$
30
  -OEChem-05192314333D
 Structure written by MMmdl.
 53 57  0     1  0  0  0  0  0999 V2000
   -6.3720   12.3564  -12.0094 C   0  0  0  0  0  0  0  0  0  0  0  0
   -6.5328   11.8103  -10.7336 C   0  0  0  0  0  0  0  0  0  0  0  0
   -7.7318   10.5755  -13.0290 C   0  0  0  0  0  0  0  0  0  0  0  0
   -6.9898   11.7633  -13.1279 C   0  0  0  0  0  0  0  0  0  0  0  0
   -7.8210   10.0065  -11.7558 C   0  0  0  0  0  0  0  0  0  0  0  0
   -7.2477   10.6184  -10.6026 C   0  0  0  0  0  0  0  0  0  0  0  0
   -7.6140    9.7458   -9.5136 C   0  0  0  0  0  0  0  0  0  0  0  0
   -8.2690    8.7218   -9.9879 N   0  0  0  0  0  0  0  0  0  0  0  0
   -8.4092    8.8538  -11.2990 N   0  0  0  0  0  0  0  0  0  0  0  0
   -7.3381    9.8926   -8.0280 C   0  0  0  0  0  0  0  0  0  0  0  0
   -4.3458   13.7121  -11.5140 N   0  0  0  0  0  0  0  0  0  0  0  0
   -5.5478   13.6364  -12.1864 C   0  0  0  0  0  0  0  0  0  0  0  0
   -5.9572   14.5395  -12.9136 O   0  0  0  0  0  0  0  0  0  0  0  0
   -5.9581   10.4851   -7.7363 C   0  0  0  0  0  0  0  0  0  0  0  0
   -4.8068    9.7633   -8.0566 C   0  0  0  0  0  0  0  0  0  0  0  0
   -3.5506   10.3101   -7.8085 C   0  0  0  0  0  0  0  0  0  0  0  0
   -3.4405   11.5856   -7.2383 C   0  0  0  0  0  0  0  0  0  0  0  0
   -4.5911   12.3019   -6.9155 C   0  0  0  0  0  0  0  0  0  0  0  0
   -5.8461   11.7538   -7.1583 C   0  0  0  0  0  0  0  0  0  0  0  0
   -2.0993   12.1777   -6.9729 C   0  0  0  0  0  0  0  0  0  0  0  0
   -1.7708   13.4214   -6.4416 C   0  0  0  0  0  0  0  0  0  0  0  0
   -0.4313   13.4856   -6.3949 N   0  0  0  0  0  0  0  0  0  0  0  0
    0.1723   12.4145   -6.8299 N   0  0  0  0  0  0  0  0  0  0  0  0
   -0.8042   11.6008   -7.2039 C   0  0  0  0  0  0  0  0  0  0  0  0
    0.3889   14.5981   -5.9187 C   0  0  0  0  0  0  0  0  0  0  0  0
   -3.6987   12.5799  -10.8351 C   0  0  0  0  0  0  0  0  0  0  0  0
   -2.1930   12.9387  -10.9658 C   0  0  2  0  0  0  0  0  0  0  0  0
   -2.1862   14.4653  -10.9438 C   0  0  0  0  0  0  0  0  0  0  0  0
   -3.5086   14.9068  -11.5988 C   0  0  0  0  0  0  0  0  0  0  0  0
   -1.6500   12.4417  -12.1854 O   0  0  0  0  0  0  0  0  0  0  0  0
   -5.5260   11.6309  -10.3284 H   0  0  0  0  0  0  0  0  0  0  0  0
   -7.0459   12.5654  -10.1199 H   0  0  0  0  0  0  0  0  0  0  0  0
   -8.2070   10.1267  -13.8888 H   0  0  0  0  0  0  0  0  0  0  0  0
   -6.8894   12.2377  -14.0929 H   0  0  0  0  0  0  0  0  0  0  0  0
   -8.0412    9.6089   -7.2589 H   0  0  0  0  0  0  0  0  0  0  0  0
   -4.8906    8.7807   -8.4969 H   0  0  0  0  0  0  0  0  0  0  0  0
   -2.6603    9.7509   -8.0557 H   0  0  0  0  0  0  0  0  0  0  0  0
   -3.4412   12.0353   -8.2422 H   0  0  0  0  0  0  0  0  0  0  0  0
   -4.5083   13.2849   -6.4758 H   0  0  0  0  0  0  0  0  0  0  0  0
   -6.7358   12.3089   -6.9000 H   0  0  0  0  0  0  0  0  0  0  0  0
   -2.4624   14.1888   -6.1268 H   0  0  0  0  0  0  0  0  0  0  0  0
   -0.6455   10.6216   -7.6310 H   0  0  0  0  0  0  0  0  0  0  0  0
    1.4531   14.3351   -6.0101 H   0  0  0  0  0  0  0  0  0  0  0  0
    0.1793   15.4930   -6.5230 H   0  0  0  0  0  0  0  0  0  0  0  0
    0.1513   14.8037   -4.8645 H   0  0  0  0  0  0  0  0  0  0  0  0
   -4.0045   12.5193   -9.7802 H   0  0  0  0  0  0  0  0  0  0  0  0
   -3.9276   11.6290  -11.3384 H   0  0  0  0  0  0  0  0  0  0  0  0
   -1.6452   12.5495  -10.0949 H   0  0  0  0  0  0  0  0  0  0  0  0
   -2.1318   14.8321   -9.9082 H   0  0  0  0  0  0  0  0  0  0  0  0
   -1.3293   14.8517  -11.5151 H   0  0  0  0  0  0  0  0  0  0  0  0
   -3.3493   15.2019  -12.6464 H   0  0  0  0  0  0  0  0  0  0  0  0
   -3.9607   15.7439  -11.0467 H   0  0  0  0  0  0  0  0  0  0  0  0
   -0.7305   12.6738  -12.2410 H   0  0  0  0  0  0  0  0  0  0  0  0
  1  2  1  0  0  0  0
  1  4  2  0  0  0  0
  1 12  1  0  0  0  0
  2  6  1  0  0  0  0
  3  4  1  0  0  0  0
  3  5  2  0  0  0  0
  5  6  1  0  0  0  0
  5  9  1  0  0  0  0
  6  7  2  0  0  0  0
  7  8  1  0  0  0  0
  7 10  1  0  0  0  0
  8  9  2  0  0  0  0
 10 14  2  0  0  0  0
 11 12  1  0  0  0  0
 11 26  1  0  0  0  0
 11 29  1  0  0  0  0
 12 13  2  0  0  0  0
 14 15  1  0  0  0  0
 14 19  1  0  0  0  0
 15 16  2  0  0  0  0
 16 17  1  0  0  0  0
 17 18  1  0  0  0  0
 17 20  1  0  0  0  0
 18 19  2  0  0  0  0
 20 21  2  0  0  0  0
 20 24  1  0  0  0  0
 21 22  1  0  0  0  0
 22 23  1  0  0  0  0
 22 25  1  0  0  0  0
 23 24  2  0  0  0  0
 26 27  1  0  0  0  0
 27 28  1  0  0  0  0
 27 30  1  0  0  0  0
 28 29  1  0  0  0  0
  2 31  1  0  0  0  0
  2 32  1  0  0  0  0
  3 33  1  0  0  0  0
  4 34  1  0  0  0  0
 10 35  1  0  0  0  0
 15 36  1  0  0  0  0
 16 37  1  0  0  0  0
 17 38  1  0  0  0  0
 18 39  1  0  0  0  0
 19 40  1  0  0  0  0
 21 41  1  0  0  0  0
 24 42  1  0  0  0  0
 25 43  1  0  0  0  0
 25 44  1  0  0  0  0
 25 45  1  0  0  0  0
 26 46  1  0  0  0  0
 26 47  1  0  0  0  0
 27 48  1  0  0  0  0
 28 49  1  0  0  0  0
 28 50  1  0  0  0  0
 29 51  1  0  0  0  0
 29 52  1  0  0  0  0
 30 53  1  0  0  0  0
M  END
> <Name>
30

> <IC50[uM]>
0.003

$$$$
30
  -OEChem-05192314333D
 Structure written by MMmdl.
 53 57  0     1  0  0  0  0  0999 V2000
   -6.3720   12.3564  -12.0094 C   0  0  0  0  0  0  0  0  0  0  0  0
   -6.5328   11.8103  -10.7336 C   0  0  0  0  0  0  0  0  0  0  0  0
   -7.7318   10.5755  -13.0290 C   0  0  0  0  0  0  0  0  0  0  0  0
   -6.9898   11.7633  -13.1279 C   0  0  0  0  0  0  0  0  0  0  0  0
   -7.8210   10.0065  -11.7558 C   0  0  0  0  0  0  0  0  0  0  0  0
   -7.2477   10.6184  -10.6026 C   0  0  0  0  0  0  0  0  0  0  0  0
   -7.6140    9.7458   -9.5136 C   0  0  0  0  0  0  0  0  0  0  0  0
   -8.2690    8.7218   -9.9879 N   0  0  0  0  0  0  0  0  0  0  0  0
   -8.4092    8.8538  -11.2990 N   0  0  0  0  0  0  0  0  0  0  0  0
   -7.3381    9.8926   -8.0280 C   0  0  0  0  0  0  0  0  0  0  0  0
   -4.3458   13.7121  -11.5140 N   0  0  0  0  0  0  0  0  0  0  0  0
   -5.5478   13.6364  -12.1864 C   0  0  0  0  0  0  0  0  0  0  0  0
   -5.9572   14.5395  -12.9136 O   0  0  0  0  0  0  0  0  0  0  0  0
   -5.9581   10.4851   -7.7363 C   0  0  0  0  0  0  0  0  0  0  0  0
   -4.8068    9.7633   -8.0566 C   0  0  0  0  0  0  0  0  0  0  0  0
   -3.5506   10.3101   -7.8085 C   0  0  0  0  0  0  0  0  0  0  0  0
   -3.4405   11.5856   -7.2383 C   0  0  0  0  0  0  0  0  0  0  0  0
   -4.5911   12.3019   -6.9155 C   0  0  0  0  0  0  0  0  0  0  0  0
   -5.8461   11.7538   -7.1583 C   0  0  0  0  0  0  0  0  0  0  0  0
   -2.0993   12.1777   -6.9729 C   0  0  0  0  0  0  0  0  0  0  0  0
   -1.7708   13.4214   -6.4416 C   0  0  0  0  0  0  0  0  0  0  0  0
   -0.4313   13.4856   -6.3949 N   0  0  0  0  0  0  0  0  0  0  0  0
    0.1723   12.4145   -6.8299 N   0  0  0  0  0  0  0  0  0  0  0  0
   -0.8042   11.6008   -7.2039 C   0  0  0  0  0  0  0  0  0  0  0  0
    0.3889   14.5981   -5.9187 C   0  0  0  0  0  0  0  0  0  0  0  0
   -3.6987   12.5799  -10.8351 C   0  0  0  0  0  0  0  0  0  0  0  0
   -2.1930   12.9387  -10.9658 C   0  0  2  0  0  0  0  0  0  0  0  0
   -2.1862   14.4653  -10.9438 C   0  0  0  0  0  0  0  0  0  0  0  0
   -3.5086   14.9068  -11.5988 C   0  0  0  0  0  0  0  0  0  0  0  0
   -1.6500   12.4417  -12.1854 O   0  0  0  0  0  0  0  0  0  0  0  0
   -5.5260   11.6309  -10.3284 H   0  0  0  0  0  0  0  0  0  0  0  0
   -7.0459   12.5654  -10.1199 H   0  0  0  0  0  0  0  0  0  0  0  0
   -8.2070   10.1267  -13.8888 H   0  0  0  0  0  0  0  0  0  0  0  0
   -6.8894   12.2377  -14.0929 H   0  0  0  0  0  0  0  0  0  0  0  0
   -8.0412    9.6089   -7.2589 H   0  0  0  0  0  0  0  0  0  0  0  0
   -4.8906    8.7807   -8.4969 H   0  0  0  0  0  0  0  0  0  0  0  0
   -2.6603    9.7509   -8.0557 H   0  0  0  0  0  0  0  0  0  0  0  0
   -4.5083   13.2849   -6.4758 H   0  0  0  0  0  0  0  0  0  0  0  0
   -6.3740   12.4529   -7.8236 H   0  0  0  0  0  0  0  0  0  0  0  0
   -6.3646   11.7075   -6.1893 H   0  0  0  0  0  0  0  0  0  0  0  0
   -2.4624   14.1888   -6.1268 H   0  0  0  0  0  0  0  0  0  0  0  0
   -0.6455   10.6216   -7.6310 H   0  0  0  0  0  0  0  0  0  0  0  0
    1.4531   14.3351   -6.0101 H   0  0  0  0  0  0  0  0  0  0  0  0
    0.1793   15.4930   -6.5230 H   0  0  0  0  0  0  0  0  0  0  0  0
    0.1513   14.8037   -4.8645 H   0  0  0  0  0  0  0  0  0  0  0  0
   -4.0045   12.5193   -9.7802 H   0  0  0  0  0  0  0  0  0  0  0  0
   -3.9276   11.6290  -11.3384 H   0  0  0  0  0  0  0  0  0  0  0  0
   -1.6452   12.5495  -10.0949 H   0  0  0  0  0  0  0  0  0  0  0  0
   -2.1318   14.8321   -9.9082 H   0  0  0  0  0  0  0  0  0  0  0  0
   -1.3293   14.8517  -11.5151 H   0  0  0  0  0  0  0  0  0  0  0  0
   -3.3493   15.2019  -12.6464 H   0  0  0  0  0  0  0  0  0  0  0  0
   -3.9607   15.7439  -11.0467 H   0  0  0  0  0  0  0  0  0  0  0  0
   -0.7305   12.6738  -12.2410 H   0  0  0  0  0  0  0  0  0  0  0  0
  1  2  1  0  0  0  0
  1  4  2  0  0  0  0
  1 12  1  0  0  0  0
  2  6  1  0  0  0  0
  3  4  1  0  0  0  0
  3  5  2  0  0  0  0
  5  6  1  0  0  0  0
  5  9  1  0  0  0  0
  6  7  2  0  0  0  0
  7  8  1  0  0  0  0
  7 10  1  0  0  0  0
  8  9  2  0  0  0  0
 10 14  2  0  0  0  0
 11 12  1  0  0  0  0
 11 26  1  0  0  0  0
 11 29  1  0  0  0  0
 12 13  2  0  0  0  0
 14 15  1  0  0  0  0
 14 19  1  0  0  0  0
 15 16  2  0  0  0  0
 16 17  1  0  0  0  0
 17 18  2  0  0  0  0
 17 20  1  0  0  0  0
 18 19  1  0  0  0  0
 20 21  2  0  0  0  0
 20 24  1  0  0  0  0
 21 22  1  0  0  0  0
 22 23  1  0  0  0  0
 22 25  1  0  0  0  0
 23 24  2  0  0  0  0
 26 27  1  0  0  0  0
 27 28  1  0  0  0  0
 27 30  1  0  0  0  0
 28 29  1  0  0  0  0
  2 31  1  0  0  0  0
  2 32  1  0  0  0  0
  3 33  1  0  0  0  0
  4 34  1  0  0  0  0
 10 35  1  0  0  0  0
 15 36  1  0  0  0  0
 16 37  1  0  0  0  0
 18 38  1  0  0  0  0
 19 39  1  0  0  0  0
 19 40  1  0  0  0  0
 21 41  1  0  0  0  0
 24 42  1  0  0  0  0
 25 43  1  0  0  0  0
 25 44  1  0  0  0  0
 25 45  1  0  0  0  0
 26 46  1  0  0  0  0
 26 47  1  0  0  0  0
 27 48  1  0  0  0  0
 28 49  1  0  0  0  0
 28 50  1  0  0  0  0
 29 51  1  0  0  0  0
 29 52  1  0  0  0  0
 30 53  1  0  0  0  0
M  END
> <Name>
30

> <IC50[uM]>
0.003

$$$$
30
  -OEChem-05192314333D
 Structure written by MMmdl.
 53 57  0     1  0  0  0  0  0999 V2000
   -6.3720   12.3564  -12.0094 C   0  0  0  0  0  0  0  0  0  0  0  0
   -6.5328   11.8103  -10.7336 C   0  0  0  0  0  0  0  0  0  0  0  0
   -7.7318   10.5755  -13.0290 C   0  0  0  0  0  0  0  0  0  0  0  0
   -6.9898   11.7633  -13.1279 C   0  0  0  0  0  0  0  0  0  0  0  0
   -7.8210   10.0065  -11.7558 C   0  0  0  0  0  0  0  0  0  0  0  0
   -7.2477   10.6184  -10.6026 C   0  0  0  0  0  0  0  0  0  0  0  0
   -7.6140    9.7458   -9.5136 C   0  0  0  0  0  0  0  0  0  0  0  0
   -8.2690    8.7218   -9.9879 N   0  0  0  0  0  0  0  0  0  0  0  0
   -8.4092    8.8538  -11.2990 N   0  0  0  0  0  0  0  0  0  0  0  0
   -7.3381    9.8926   -8.0280 C   0  0  0  0  0  0  0  0  0  0  0  0
   -4.3458   13.7121  -11.5140 N   0  0  0  0  0  0  0  0  0  0  0  0
   -5.5478   13.6364  -12.1864 C   0  0  0  0  0  0  0  0  0  0  0  0
   -5.9572   14.5395  -12.9136 O   0  0  0  0  0  0  0  0  0  0  0  0
   -5.9581   10.4851   -7.7363 C   0  0  0  0  0  0  0  0  0  0  0  0
   -4.8068    9.7633   -8.0566 C   0  0  0  0  0  0  0  0  0  0  0  0
   -3.5506   10.3101   -7.8085 C   0  0  0  0  0  0  0  0  0  0  0  0
   -3.4405   11.5856   -7.2383 C   0  0  0  0  0  0  0  0  0  0  0  0
   -4.5911   12.3019   -6.9155 C   0  0  0  0  0  0  0  0  0  0  0  0
   -5.8461   11.7538   -7.1583 C   0  0  0  0  0  0  0  0  0  0  0  0
   -2.0993   12.1777   -6.9729 C   0  0  0  0  0  0  0  0  0  0  0  0
   -1.7708   13.4214   -6.4416 C   0  0  0  0  0  0  0  0  0  0  0  0
   -0.4313   13.4856   -6.3949 N   0  0  0  0  0  0  0  0  0  0  0  0
    0.1723   12.4145   -6.8299 N   0  0  0  0  0  0  0  0  0  0  0  0
   -0.8042   11.6008   -7.2039 C   0  0  0  0  0  0  0  0  0  0  0  0
    0.3889   14.5981   -5.9187 C   0  0  0  0  0  0  0  0  0  0  0  0
   -3.6987   12.5799  -10.8351 C   0  0  0  0  0  0  0  0  0  0  0  0
   -2.1930   12.9387  -10.9658 C   0  0  2  0  0  0  0  0  0  0  0  0
   -2.1862   14.4653  -10.9438 C   0  0  0  0  0  0  0  0  0  0  0  0
   -3.5086   14.9068  -11.5988 C   0  0  0  0  0  0  0  0  0  0  0  0
   -1.6500   12.4417  -12.1854 O   0  0  0  0  0  0  0  0  0  0  0  0
   -6.1130   12.2997   -9.8672 H   0  0  0  0  0  0  0  0  0  0  0  0
   -8.2070   10.1267  -13.8888 H   0  0  0  0  0  0  0  0  0  0  0  0
   -6.8894   12.2377  -14.0929 H   0  0  0  0  0  0  0  0  0  0  0  0
   -8.6124    7.9552   -9.4454 H   0  0  0  0  0  0  0  0  0  0  0  0
   -8.0412    9.6089   -7.2589 H   0  0  0  0  0  0  0  0  0  0  0  0
   -5.3324   15.2551  -12.9129 H   0  0  0  0  0  0  0  0  0  0  0  0
   -4.8906    8.7807   -8.4969 H   0  0  0  0  0  0  0  0  0  0  0  0
   -2.6603    9.7509   -8.0557 H   0  0  0  0  0  0  0  0  0  0  0  0
   -4.5083   13.2849   -6.4758 H   0  0  0  0  0  0  0  0  0  0  0  0
   -6.7358   12.3089   -6.9000 H   0  0  0  0  0  0  0  0  0  0  0  0
   -2.4624   14.1888   -6.1268 H   0  0  0  0  0  0  0  0  0  0  0  0
   -0.6455   10.6216   -7.6310 H   0  0  0  0  0  0  0  0  0  0  0  0
    1.4531   14.3351   -6.0101 H   0  0  0  0  0  0  0  0  0  0  0  0
    0.1793   15.4930   -6.5230 H   0  0  0  0  0  0  0  0  0  0  0  0
    0.1513   14.8037   -4.8645 H   0  0  0  0  0  0  0  0  0  0  0  0
   -4.0045   12.5193   -9.7802 H   0  0  0  0  0  0  0  0  0  0  0  0
   -3.9276   11.6290  -11.3384 H   0  0  0  0  0  0  0  0  0  0  0  0
   -1.6452   12.5495  -10.0949 H   0  0  0  0  0  0  0  0  0  0  0  0
   -2.1318   14.8321   -9.9082 H   0  0  0  0  0  0  0  0  0  0  0  0
   -1.3293   14.8517  -11.5151 H   0  0  0  0  0  0  0  0  0  0  0  0
   -3.3493   15.2019  -12.6464 H   0  0  0  0  0  0  0  0  0  0  0  0
   -3.9607   15.7439  -11.0467 H   0  0  0  0  0  0  0  0  0  0  0  0
   -0.7305   12.6738  -12.2410 H   0  0  0  0  0  0  0  0  0  0  0  0
  1  2  1  0  0  0  0
  1  4  1  0  0  0  0
  1 12  2  0  0  0  0
  2  6  2  0  0  0  0
  3  4  2  0  0  0  0
  3  5  1  0  0  0  0
  5  6  1  0  0  0  0
  5  9  2  0  0  0  0
  6  7  1  0  0  0  0
  7  8  1  0  0  0  0
  7 10  2  0  0  0  0
  8  9  1  0  0  0  0
 10 14  1  0  0  0  0
 11 12  1  0  0  0  0
 11 26  1  0  0  0  0
 11 29  1  0  0  0  0
 12 13  1  0  0  0  0
 14 15  2  0  0  0  0
 14 19  1  0  0  0  0
 15 16  1  0  0  0  0
 16 17  2  0  0  0  0
 17 18  1  0  0  0  0
 17 20  1  0  0  0  0
 18 19  2  0  0  0  0
 20 21  2  0  0  0  0
 20 24  1  0  0  0  0
 21 22  1  0  0  0  0
 22 23  1  0  0  0  0
 22 25  1  0  0  0  0
 23 24  2  0  0  0  0
 26 27  1  0  0  0  0
 27 28  1  0  0  0  0
 27 30  1  0  0  0  0
 28 29  1  0  0  0  0
  2 31  1  0  0  0  0
  3 32  1  0  0  0  0
  4 33  1  0  0  0  0
  8 34  1  0  0  0  0
 10 35  1  0  0  0  0
 13 36  1  0  0  0  0
 15 37  1  0  0  0  0
 16 38  1  0  0  0  0
 18 39  1  0  0  0  0
 19 40  1  0  0  0  0
 21 41  1  0  0  0  0
 24 42  1  0  0  0  0
 25 43  1  0  0  0  0
 25 44  1  0  0  0  0
 25 45  1  0  0  0  0
 26 46  1  0  0  0  0
 26 47  1  0  0  0  0
 27 48  1  0  0  0  0
 28 49  1  0  0  0  0
 28 50  1  0  0  0  0
 29 51  1  0  0  0  0
 29 52  1  0  0  0  0
 30 53  1  0  0  0  0
M  END
> <Name>
30

> <IC50[uM]>
0.003

$$$$
30
  -OEChem-05192314333D
 Structure written by MMmdl.
 53 57  0     1  0  0  0  0  0999 V2000
   -6.3720   12.3564  -12.0094 C   0  0  0  0  0  0  0  0  0  0  0  0
   -6.5328   11.8103  -10.7336 C   0  0  0  0  0  0  0  0  0  0  0  0
   -7.7318   10.5755  -13.0290 C   0  0  0  0  0  0  0  0  0  0  0  0
   -6.9898   11.7633  -13.1279 C   0  0  0  0  0  0  0  0  0  0  0  0
   -7.8210   10.0065  -11.7558 C   0  0  0  0  0  0  0  0  0  0  0  0
   -7.2477   10.6184  -10.6026 C   0  0  0  0  0  0  0  0  0  0  0  0
   -7.6140    9.7458   -9.5136 C   0  0  0  0  0  0  0  0  0  0  0  0
   -8.2690    8.7218   -9.9879 N   0  0  0  0  0  0  0  0  0  0  0  0
   -8.4092    8.8538  -11.2990 N   0  0  0  0  0  0  0  0  0  0  0  0
   -7.3381    9.8926   -8.0280 C   0  0  0  0  0  0  0  0  0  0  0  0
   -4.3458   13.7121  -11.5140 N   0  0  0  0  0  0  0  0  0  0  0  0
   -5.5478   13.6364  -12.1864 C   0  0  0  0  0  0  0  0  0  0  0  0
   -5.9572   14.5395  -12.9136 O   0  0  0  0  0  0  0  0  0  0  0  0
   -5.9581   10.4851   -7.7363 C   0  0  0  0  0  0  0  0  0  0  0  0
   -4.8068    9.7633   -8.0566 C   0  0  0  0  0  0  0  0  0  0  0  0
   -3.5506   10.3101   -7.8085 C   0  0  0  0  0  0  0  0  0  0  0  0
   -3.4405   11.5856   -7.2383 C   0  0  0  0  0  0  0  0  0  0  0  0
   -4.5911   12.3019   -6.9155 C   0  0  0  0  0  0  0  0  0  0  0  0
   -5.8461   11.7538   -7.1583 C   0  0  0  0  0  0  0  0  0  0  0  0
   -2.0993   12.1777   -6.9729 C   0  0  0  0  0  0  0  0  0  0  0  0
   -1.7708   13.4214   -6.4416 C   0  0  0  0  0  0  0  0  0  0  0  0
   -0.4313   13.4856   -6.3949 N   0  0  0  0  0  0  0  0  0  0  0  0
    0.1723   12.4145   -6.8299 N   0  0  0  0  0  0  0  0  0  0  0  0
   -0.8042   11.6008   -7.2039 C   0  0  0  0  0  0  0  0  0  0  0  0
    0.3889   14.5981   -5.9187 C   0  0  0  0  0  0  0  0  0  0  0  0
   -3.6987   12.5799  -10.8351 C   0  0  0  0  0  0  0  0  0  0  0  0
   -2.1930   12.9387  -10.9658 C   0  0  2  0  0  0  0  0  0  0  0  0
   -2.1862   14.4653  -10.9438 C   0  0  0  0  0  0  0  0  0  0  0  0
   -3.5086   14.9068  -11.5988 C   0  0  0  0  0  0  0  0  0  0  0  0
   -1.6500   12.4417  -12.1854 O   0  0  0  0  0  0  0  0  0  0  0  0
   -6.1130   12.2997   -9.8672 H   0  0  0  0  0  0  0  0  0  0  0  0
   -8.2070   10.1267  -13.8888 H   0  0  0  0  0  0  0  0  0  0  0  0
   -6.8894   12.2377  -14.0929 H   0  0  0  0  0  0  0  0  0  0  0  0
   -8.0412    9.6089   -7.2589 H   0  0  0  0  0  0  0  0  0  0  0  0
   -6.0618   14.0903  -11.3263 H   0  0  0  0  0  0  0  0  0  0  0  0
   -5.3324   15.2551  -12.9129 H   0  0  0  0  0  0  0  0  0  0  0  0
   -4.8906    8.7807   -8.4969 H   0  0  0  0  0  0  0  0  0  0  0  0
   -2.6603    9.7509   -8.0557 H   0  0  0  0  0  0  0  0  0  0  0  0
   -4.5083   13.2849   -6.4758 H   0  0  0  0  0  0  0  0  0  0  0  0
   -6.7358   12.3089   -6.9000 H   0  0  0  0  0  0  0  0  0  0  0  0
   -2.4624   14.1888   -6.1268 H   0  0  0  0  0  0  0  0  0  0  0  0
   -0.6455   10.6216   -7.6310 H   0  0  0  0  0  0  0  0  0  0  0  0
    1.4531   14.3351   -6.0101 H   0  0  0  0  0  0  0  0  0  0  0  0
    0.1793   15.4930   -6.5230 H   0  0  0  0  0  0  0  0  0  0  0  0
    0.1513   14.8037   -4.8645 H   0  0  0  0  0  0  0  0  0  0  0  0
   -4.0045   12.5193   -9.7802 H   0  0  0  0  0  0  0  0  0  0  0  0
   -3.9276   11.6290  -11.3384 H   0  0  0  0  0  0  0  0  0  0  0  0
   -1.6452   12.5495  -10.0949 H   0  0  0  0  0  0  0  0  0  0  0  0
   -2.1318   14.8321   -9.9082 H   0  0  0  0  0  0  0  0  0  0  0  0
   -1.3293   14.8517  -11.5151 H   0  0  0  0  0  0  0  0  0  0  0  0
   -3.3493   15.2019  -12.6464 H   0  0  0  0  0  0  0  0  0  0  0  0
   -3.9607   15.7439  -11.0467 H   0  0  0  0  0  0  0  0  0  0  0  0
   -0.7305   12.6738  -12.2410 H   0  0  0  0  0  0  0  0  0  0  0  0
  1  2  2  0  0  0  0
  1  4  1  0  0  0  0
  1 12  1  0  0  0  0
  2  6  1  0  0  0  0
  3  4  2  0  0  0  0
  3  5  1  0  0  0  0
  5  6  2  0  0  0  0
  5  9  1  0  0  0  0
  6  7  1  0  0  0  0
  7  8  1  0  0  0  0
  7 10  2  0  0  0  0
  8  9  2  0  0  0  0
 10 14  1  0  0  0  0
 11 12  1  0  0  0  0
 11 26  1  0  0  0  0
 11 29  1  0  0  0  0
 12 13  1  0  0  0  0
 14 15  2  0  0  0  0
 14 19  1  0  0  0  0
 15 16  1  0  0  0  0
 16 17  2  0  0  0  0
 17 18  1  0  0  0  0
 17 20  1  0  0  0  0
 18 19  2  0  0  0  0
 20 21  2  0  0  0  0
 20 24  1  0  0  0  0
 21 22  1  0  0  0  0
 22 23  1  0  0  0  0
 22 25  1  0  0  0  0
 23 24  2  0  0  0  0
 26 27  1  0  0  0  0
 27 28  1  0  0  0  0
 27 30  1  0  0  0  0
 28 29  1  0  0  0  0
  2 31  1  0  0  0  0
  3 32  1  0  0  0  0
  4 33  1  0  0  0  0
 10 34  1  0  0  0  0
 12 35  1  0  0  0  0
 13 36  1  0  0  0  0
 15 37  1  0  0  0  0
 16 38  1  0  0  0  0
 18 39  1  0  0  0  0
 19 40  1  0  0  0  0
 21 41  1  0  0  0  0
 24 42  1  0  0  0  0
 25 43  1  0  0  0  0
 25 44  1  0  0  0  0
 25 45  1  0  0  0  0
 26 46  1  0  0  0  0
 26 47  1  0  0  0  0
 27 48  1  0  0  0  0
 28 49  1  0  0  0  0
 28 50  1  0  0  0  0
 29 51  1  0  0  0  0
 29 52  1  0  0  0  0
 30 53  1  0  0  0  0
M  END
> <Name>
30

> <IC50[uM]>
0.003

$$$$
30
  -OEChem-05192314333D
 Structure written by MMmdl.
 53 57  0     1  0  0  0  0  0999 V2000
   -6.3720   12.3564  -12.0094 C   0  0  0  0  0  0  0  0  0  0  0  0
   -6.5328   11.8103  -10.7336 C   0  0  0  0  0  0  0  0  0  0  0  0
   -7.7318   10.5755  -13.0290 C   0  0  0  0  0  0  0  0  0  0  0  0
   -6.9898   11.7633  -13.1279 C   0  0  0  0  0  0  0  0  0  0  0  0
   -7.8210   10.0065  -11.7558 C   0  0  0  0  0  0  0  0  0  0  0  0
   -7.2477   10.6184  -10.6026 C   0  0  0  0  0  0  0  0  0  0  0  0
   -7.6140    9.7458   -9.5136 C   0  0  0  0  0  0  0  0  0  0  0  0
   -8.2690    8.7218   -9.9879 N   0  0  0  0  0  0  0  0  0  0  0  0
   -8.4092    8.8538  -11.2990 N   0  0  0  0  0  0  0  0  0  0  0  0
   -7.3381    9.8926   -8.0280 C   0  0  0  0  0  0  0  0  0  0  0  0
   -4.3458   13.7121  -11.5140 N   0  0  0  0  0  0  0  0  0  0  0  0
   -5.5478   13.6364  -12.1864 C   0  0  0  0  0  0  0  0  0  0  0  0
   -5.9572   14.5395  -12.9136 O   0  0  0  0  0  0  0  0  0  0  0  0
   -5.9581   10.4851   -7.7363 C   0  0  0  0  0  0  0  0  0  0  0  0
   -4.8068    9.7633   -8.0566 C   0  0  0  0  0  0  0  0  0  0  0  0
   -3.5506   10.3101   -7.8085 C   0  0  0  0  0  0  0  0  0  0  0  0
   -3.4405   11.5856   -7.2383 C   0  0  0  0  0  0  0  0  0  0  0  0
   -4.5911   12.3019   -6.9155 C   0  0  0  0  0  0  0  0  0  0  0  0
   -5.8461   11.7538   -7.1583 C   0  0  0  0  0  0  0  0  0  0  0  0
   -2.0993   12.1777   -6.9729 C   0  0  0  0  0  0  0  0  0  0  0  0
   -1.7708   13.4214   -6.4416 C   0  0  0  0  0  0  0  0  0  0  0  0
   -0.4313   13.4856   -6.3949 N   0  0  0  0  0  0  0  0  0  0  0  0
    0.1723   12.4145   -6.8299 N   0  0  0  0  0  0  0  0  0  0  0  0
   -0.8042   11.6008   -7.2039 C   0  0  0  0  0  0  0  0  0  0  0  0
    0.3889   14.5981   -5.9187 C   0  0  0  0  0  0  0  0  0  0  0  0
   -3.6987   12.5799  -10.8351 C   0  0  0  0  0  0  0  0  0  0  0  0
   -2.1930   12.9387  -10.9658 C   0  0  2  0  0  0  0  0  0  0  0  0
   -2.1862   14.4653  -10.9438 C   0  0  0  0  0  0  0  0  0  0  0  0
   -3.5086   14.9068  -11.5988 C   0  0  0  0  0  0  0  0  0  0  0  0
   -1.6500   12.4417  -12.1854 O   0  0  0  0  0  0  0  0  0  0  0  0
   -6.1130   12.2997   -9.8672 H   0  0  0  0  0  0  0  0  0  0  0  0
   -8.2070   10.1267  -13.8888 H   0  0  0  0  0  0  0  0  0  0  0  0
   -6.8894   12.2377  -14.0929 H   0  0  0  0  0  0  0  0  0  0  0  0
   -8.1029   10.5522   -7.5921 H   0  0  0  0  0  0  0  0  0  0  0  0
   -7.4002    8.8994   -7.5593 H   0  0  0  0  0  0  0  0  0  0  0  0
   -5.3324   15.2551  -12.9129 H   0  0  0  0  0  0  0  0  0  0  0  0
   -4.8906    8.7807   -8.4969 H   0  0  0  0  0  0  0  0  0  0  0  0
   -2.6603    9.7509   -8.0557 H   0  0  0  0  0  0  0  0  0  0  0  0
   -4.5083   13.2849   -6.4758 H   0  0  0  0  0  0  0  0  0  0  0  0
   -6.7358   12.3089   -6.9000 H   0  0  0  0  0  0  0  0  0  0  0  0
   -2.4624   14.1888   -6.1268 H   0  0  0  0  0  0  0  0  0  0  0  0
   -0.6455   10.6216   -7.6310 H   0  0  0  0  0  0  0  0  0  0  0  0
    1.4531   14.3351   -6.0101 H   0  0  0  0  0  0  0  0  0  0  0  0
    0.1793   15.4930   -6.5230 H   0  0  0  0  0  0  0  0  0  0  0  0
    0.1513   14.8037   -4.8645 H   0  0  0  0  0  0  0  0  0  0  0  0
   -4.0045   12.5193   -9.7802 H   0  0  0  0  0  0  0  0  0  0  0  0
   -3.9276   11.6290  -11.3384 H   0  0  0  0  0  0  0  0  0  0  0  0
   -1.6452   12.5495  -10.0949 H   0  0  0  0  0  0  0  0  0  0  0  0
   -2.1318   14.8321   -9.9082 H   0  0  0  0  0  0  0  0  0  0  0  0
   -1.3293   14.8517  -11.5151 H   0  0  0  0  0  0  0  0  0  0  0  0
   -3.3493   15.2019  -12.6464 H   0  0  0  0  0  0  0  0  0  0  0  0
   -3.9607   15.7439  -11.0467 H   0  0  0  0  0  0  0  0  0  0  0  0
   -0.7305   12.6738  -12.2410 H   0  0  0  0  0  0  0  0  0  0  0  0
  1  2  1  0  0  0  0
  1  4  1  0  0  0  0
  1 12  2  0  0  0  0
  2  6  2  0  0  0  0
  3  4  2  0  0  0  0
  3  5  1  0  0  0  0
  5  6  1  0  0  0  0
  5  9  2  0  0  0  0
  6  7  1  0  0  0  0
  7  8  2  0  0  0  0
  7 10  1  0  0  0  0
  8  9  1  0  0  0  0
 10 14  1  0  0  0  0
 11 12  1  0  0  0  0
 11 26  1  0  0  0  0
 11 29  1  0  0  0  0
 12 13  1  0  0  0  0
 14 15  2  0  0  0  0
 14 19  1  0  0  0  0
 15 16  1  0  0  0  0
 16 17  2  0  0  0  0
 17 18  1  0  0  0  0
 17 20  1  0  0  0  0
 18 19  2  0  0  0  0
 20 21  2  0  0  0  0
 20 24  1  0  0  0  0
 21 22  1  0  0  0  0
 22 23  1  0  0  0  0
 22 25  1  0  0  0  0
 23 24  2  0  0  0  0
 26 27  1  0  0  0  0
 27 28  1  0  0  0  0
 27 30  1  0  0  0  0
 28 29  1  0  0  0  0
  2 31  1  0  0  0  0
  3 32  1  0  0  0  0
  4 33  1  0  0  0  0
 10 34  1  0  0  0  0
 10 35  1  0  0  0  0
 13 36  1  0  0  0  0
 15 37  1  0  0  0  0
 16 38  1  0  0  0  0
 18 39  1  0  0  0  0
 19 40  1  0  0  0  0
 21 41  1  0  0  0  0
 24 42  1  0  0  0  0
 25 43  1  0  0  0  0
 25 44  1  0  0  0  0
 25 45  1  0  0  0  0
 26 46  1  0  0  0  0
 26 47  1  0  0  0  0
 27 48  1  0  0  0  0
 28 49  1  0  0  0  0
 28 50  1  0  0  0  0
 29 51  1  0  0  0  0
 29 52  1  0  0  0  0
 30 53  1  0  0  0  0
M  END
> <Name>
30

> <IC50[uM]>
0.003

$$$$
30
  -OEChem-05192314333D
 Structure written by MMmdl.
 53 57  0     1  0  0  0  0  0999 V2000
   -6.3720   12.3564  -12.0094 C   0  0  0  0  0  0  0  0  0  0  0  0
   -6.5328   11.8103  -10.7336 C   0  0  0  0  0  0  0  0  0  0  0  0
   -7.7318   10.5755  -13.0290 C   0  0  0  0  0  0  0  0  0  0  0  0
   -6.9898   11.7633  -13.1279 C   0  0  0  0  0  0  0  0  0  0  0  0
   -7.8210   10.0065  -11.7558 C   0  0  0  0  0  0  0  0  0  0  0  0
   -7.2477   10.6184  -10.6026 C   0  0  0  0  0  0  0  0  0  0  0  0
   -7.6140    9.7458   -9.5136 C   0  0  0  0  0  0  0  0  0  0  0  0
   -8.2690    8.7218   -9.9879 N   0  0  0  0  0  0  0  0  0  0  0  0
   -8.4092    8.8538  -11.2990 N   0  0  0  0  0  0  0  0  0  0  0  0
   -7.3381    9.8926   -8.0280 C   0  0  0  0  0  0  0  0  0  0  0  0
   -4.3458   13.7121  -11.5140 N   0  0  0  0  0  0  0  0  0  0  0  0
   -5.5478   13.6364  -12.1864 C   0  0  0  0  0  0  0  0  0  0  0  0
   -5.9572   14.5395  -12.9136 O   0  0  0  0  0  0  0  0  0  0  0  0
   -5.9581   10.4851   -7.7363 C   0  0  0  0  0  0  0  0  0  0  0  0
   -4.8068    9.7633   -8.0566 C   0  0  0  0  0  0  0  0  0  0  0  0
   -3.5506   10.3101   -7.8085 C   0  0  0  0  0  0  0  0  0  0  0  0
   -3.4405   11.5856   -7.2383 C   0  0  0  0  0  0  0  0  0  0  0  0
   -4.5911   12.3019   -6.9155 C   0  0  0  0  0  0  0  0  0  0  0  0
   -5.8461   11.7538   -7.1583 C   0  0  0  0  0  0  0  0  0  0  0  0
   -2.0993   12.1777   -6.9729 C   0  0  0  0  0  0  0  0  0  0  0  0
   -1.7708   13.4214   -6.4416 C   0  0  0  0  0  0  0  0  0  0  0  0
   -0.4313   13.4856   -6.3949 N   0  0  0  0  0  0  0  0  0  0  0  0
    0.1723   12.4145   -6.8299 N   0  0  0  0  0  0  0  0  0  0  0  0
   -0.8042   11.6008   -7.2039 C   0  0  0  0  0  0  0  0  0  0  0  0
    0.3889   14.5981   -5.9187 C   0  0  0  0  0  0  0  0  0  0  0  0
   -3.6987   12.5799  -10.8351 C   0  0  0  0  0  0  0  0  0  0  0  0
   -2.1930   12.9387  -10.9658 C   0  0  2  0  0  0  0  0  0  0  0  0
   -2.1862   14.4653  -10.9438 C   0  0  0  0  0  0  0  0  0  0  0  0
   -3.5086   14.9068  -11.5988 C   0  0  0  0  0  0  0  0  0  0  0  0
   -1.6500   12.4417  -12.1854 O   0  0  0  0  0  0  0  0  0  0  0  0
   -6.1130   12.2997   -9.8672 H   0  0  0  0  0  0  0  0  0  0  0  0
   -8.2070   10.1267  -13.8888 H   0  0  0  0  0  0  0  0  0  0  0  0
   -6.8894   12.2377  -14.0929 H   0  0  0  0  0  0  0  0  0  0  0  0
   -8.0412    9.6089   -7.2589 H   0  0  0  0  0  0  0  0  0  0  0  0
   -5.3324   15.2551  -12.9129 H   0  0  0  0  0  0  0  0  0  0  0  0
   -4.8906    8.7807   -8.4969 H   0  0  0  0  0  0  0  0  0  0  0  0
   -2.6603    9.7509   -8.0557 H   0  0  0  0  0  0  0  0  0  0  0  0
   -4.5083   13.2849   -6.4758 H   0  0  0  0  0  0  0  0  0  0  0  0
   -6.7358   12.3089   -6.9000 H   0  0  0  0  0  0  0  0  0  0  0  0
   -2.1654   14.2228   -7.0835 H   0  0  0  0  0  0  0  0  0  0  0  0
   -2.1896   13.5226   -5.4295 H   0  0  0  0  0  0  0  0  0  0  0  0
   -0.6455   10.6216   -7.6310 H   0  0  0  0  0  0  0  0  0  0  0  0
    1.4531   14.3351   -6.0101 H   0  0  0  0  0  0  0  0  0  0  0  0
    0.1793   15.4930   -6.5230 H   0  0  0  0  0  0  0  0  0  0  0  0
    0.1513   14.8037   -4.8645 H   0  0  0  0  0  0  0  0  0  0  0  0
   -4.0045   12.5193   -9.7802 H   0  0  0  0  0  0  0  0  0  0  0  0
   -3.9276   11.6290  -11.3384 H   0  0  0  0  0  0  0  0  0  0  0  0
   -1.6452   12.5495  -10.0949 H   0  0  0  0  0  0  0  0  0  0  0  0
   -2.1318   14.8321   -9.9082 H   0  0  0  0  0  0  0  0  0  0  0  0
   -1.3293   14.8517  -11.5151 H   0  0  0  0  0  0  0  0  0  0  0  0
   -3.3493   15.2019  -12.6464 H   0  0  0  0  0  0  0  0  0  0  0  0
   -3.9607   15.7439  -11.0467 H   0  0  0  0  0  0  0  0  0  0  0  0
   -0.7305   12.6738  -12.2410 H   0  0  0  0  0  0  0  0  0  0  0  0
  1  2  1  0  0  0  0
  1  4  1  0  0  0  0
  1 12  2  0  0  0  0
  2  6  2  0  0  0  0
  3  4  2  0  0  0  0
  3  5  1  0  0  0  0
  5  6  1  0  0  0  0
  5  9  2  0  0  0  0
  6  7  1  0  0  0  0
  7  8  2  0  0  0  0
  7 10  1  0  0  0  0
  8  9  1  0  0  0  0
 10 14  2  0  0  0  0
 11 12  1  0  0  0  0
 11 26  1  0  0  0  0
 11 29  1  0  0  0  0
 12 13  1  0  0  0  0
 14 15  1  0  0  0  0
 14 19  1  0  0  0  0
 15 16  2  0  0  0  0
 16 17  1  0  0  0  0
 17 18  1  0  0  0  0
 17 20  2  0  0  0  0
 18 19  2  0  0  0  0
 20 21  1  0  0  0  0
 20 24  1  0  0  0  0
 21 22  1  0  0  0  0
 22 23  1  0  0  0  0
 22 25  1  0  0  0  0
 23 24  2  0  0  0  0
 26 27  1  0  0  0  0
 27 28  1  0  0  0  0
 27 30  1  0  0  0  0
 28 29  1  0  0  0  0
  2 31  1  0  0  0  0
  3 32  1  0  0  0  0
  4 33  1  0  0  0  0
 10 34  1  0  0  0  0
 13 35  1  0  0  0  0
 15 36  1  0  0  0  0
 16 37  1  0  0  0  0
 18 38  1  0  0  0  0
 19 39  1  0  0  0  0
 21 40  1  0  0  0  0
 21 41  1  0  0  0  0
 24 42  1  0  0  0  0
 25 43  1  0  0  0  0
 25 44  1  0  0  0  0
 25 45  1  0  0  0  0
 26 46  1  0  0  0  0
 26 47  1  0  0  0  0
 27 48  1  0  0  0  0
 28 49  1  0  0  0  0
 28 50  1  0  0  0  0
 29 51  1  0  0  0  0
 29 52  1  0  0  0  0
 30 53  1  0  0  0  0
M  END
> <Name>
30

> <IC50[uM]>
0.003

$$$$
30
  -OEChem-05192314333D
 Structure written by MMmdl.
 53 57  0     1  0  0  0  0  0999 V2000
   -6.3720   12.3564  -12.0094 C   0  0  0  0  0  0  0  0  0  0  0  0
   -6.5328   11.8103  -10.7336 C   0  0  0  0  0  0  0  0  0  0  0  0
   -7.7318   10.5755  -13.0290 C   0  0  0  0  0  0  0  0  0  0  0  0
   -6.9898   11.7633  -13.1279 C   0  0  0  0  0  0  0  0  0  0  0  0
   -7.8210   10.0065  -11.7558 C   0  0  0  0  0  0  0  0  0  0  0  0
   -7.2477   10.6184  -10.6026 C   0  0  0  0  0  0  0  0  0  0  0  0
   -7.6140    9.7458   -9.5136 C   0  0  0  0  0  0  0  0  0  0  0  0
   -8.2690    8.7218   -9.9879 N   0  0  0  0  0  0  0  0  0  0  0  0
   -8.4092    8.8538  -11.2990 N   0  0  0  0  0  0  0  0  0  0  0  0
   -7.3381    9.8926   -8.0280 C   0  0  0  0  0  0  0  0  0  0  0  0
   -4.3458   13.7121  -11.5140 N   0  0  0  0  0  0  0  0  0  0  0  0
   -5.5478   13.6364  -12.1864 C   0  0  0  0  0  0  0  0  0  0  0  0
   -5.9572   14.5395  -12.9136 O   0  0  0  0  0  0  0  0  0  0  0  0
   -5.9581   10.4851   -7.7363 C   0  0  0  0  0  0  0  0  0  0  0  0
   -4.8068    9.7633   -8.0566 C   0  0  0  0  0  0  0  0  0  0  0  0
   -3.5506   10.3101   -7.8085 C   0  0  0  0  0  0  0  0  0  0  0  0
   -3.4405   11.5856   -7.2383 C   0  0  0  0  0  0  0  0  0  0  0  0
   -4.5911   12.3019   -6.9155 C   0  0  0  0  0  0  0  0  0  0  0  0
   -5.8461   11.7538   -7.1583 C   0  0  0  0  0  0  0  0  0  0  0  0
   -2.0993   12.1777   -6.9729 C   0  0  0  0  0  0  0  0  0  0  0  0
   -1.7708   13.4214   -6.4416 C   0  0  0  0  0  0  0  0  0  0  0  0
   -0.4313   13.4856   -6.3949 N   0  0  0  0  0  0  0  0  0  0  0  0
    0.1723   12.4145   -6.8299 N   0  0  0  0  0  0  0  0  0  0  0  0
   -0.8042   11.6008   -7.2039 C   0  0  0  0  0  0  0  0  0  0  0  0
    0.3889   14.5981   -5.9187 C   0  0  0  0  0  0  0  0  0  0  0  0
   -3.6987   12.5799  -10.8351 C   0  0  0  0  0  0  0  0  0  0  0  0
   -2.1930   12.9387  -10.9658 C   0  0  2  0  0  0  0  0  0  0  0  0
   -2.1862   14.4653  -10.9438 C   0  0  0  0  0  0  0  0  0  0  0  0
   -3.5086   14.9068  -11.5988 C   0  0  0  0  0  0  0  0  0  0  0  0
   -1.6500   12.4417  -12.1854 O   0  0  0  0  0  0  0  0  0  0  0  0
   -6.1130   12.2997   -9.8672 H   0  0  0  0  0  0  0  0  0  0  0  0
   -8.2070   10.1267  -13.8888 H   0  0  0  0  0  0  0  0  0  0  0  0
   -6.8894   12.2377  -14.0929 H   0  0  0  0  0  0  0  0  0  0  0  0
   -6.8834    9.4593  -11.9332 H   0  0  0  0  0  0  0  0  0  0  0  0
   -8.0412    9.6089   -7.2589 H   0  0  0  0  0  0  0  0  0  0  0  0
   -5.3324   15.2551  -12.9129 H   0  0  0  0  0  0  0  0  0  0  0  0
   -4.8906    8.7807   -8.4969 H   0  0  0  0  0  0  0  0  0  0  0  0
   -2.6603    9.7509   -8.0557 H   0  0  0  0  0  0  0  0  0  0  0  0
   -4.5083   13.2849   -6.4758 H   0  0  0  0  0  0  0  0  0  0  0  0
   -6.7358   12.3089   -6.9000 H   0  0  0  0  0  0  0  0  0  0  0  0
   -2.4624   14.1888   -6.1268 H   0  0  0  0  0  0  0  0  0  0  0  0
   -0.6455   10.6216   -7.6310 H   0  0  0  0  0  0  0  0  0  0  0  0
    1.4531   14.3351   -6.0101 H   0  0  0  0  0  0  0  0  0  0  0  0
    0.1793   15.4930   -6.5230 H   0  0  0  0  0  0  0  0  0  0  0  0
    0.1513   14.8037   -4.8645 H   0  0  0  0  0  0  0  0  0  0  0  0
   -4.0045   12.5193   -9.7802 H   0  0  0  0  0  0  0  0  0  0  0  0
   -3.9276   11.6290  -11.3384 H   0  0  0  0  0  0  0  0  0  0  0  0
   -1.6452   12.5495  -10.0949 H   0  0  0  0  0  0  0  0  0  0  0  0
   -2.1318   14.8321   -9.9082 H   0  0  0  0  0  0  0  0  0  0  0  0
   -1.3293   14.8517  -11.5151 H   0  0  0  0  0  0  0  0  0  0  0  0
   -3.3493   15.2019  -12.6464 H   0  0  0  0  0  0  0  0  0  0  0  0
   -3.9607   15.7439  -11.0467 H   0  0  0  0  0  0  0  0  0  0  0  0
   -0.7305   12.6738  -12.2410 H   0  0  0  0  0  0  0  0  0  0  0  0
  1  2  1  0  0  0  0
  1  4  1  0  0  0  0
  1 12  2  0  0  0  0
  2  6  2  0  0  0  0
  3  4  2  0  0  0  0
  3  5  1  0  0  0  0
  5  6  1  0  0  0  0
  5  9  1  0  0  0  0
  6  7  1  0  0  0  0
  7  8  1  0  0  0  0
  7 10  2  0  0  0  0
  8  9  2  0  0  0  0
 10 14  1  0  0  0  0
 11 12  1  0  0  0  0
 11 26  1  0  0  0  0
 11 29  1  0  0  0  0
 12 13  1  0  0  0  0
 14 15  2  0  0  0  0
 14 19  1  0  0  0  0
 15 16  1  0  0  0  0
 16 17  2  0  0  0  0
 17 18  1  0  0  0  0
 17 20  1  0  0  0  0
 18 19  2  0  0  0  0
 20 21  2  0  0  0  0
 20 24  1  0  0  0  0
 21 22  1  0  0  0  0
 22 23  1  0  0  0  0
 22 25  1  0  0  0  0
 23 24  2  0  0  0  0
 26 27  1  0  0  0  0
 27 28  1  0  0  0  0
 27 30  1  0  0  0  0
 28 29  1  0  0  0  0
  2 31  1  0  0  0  0
  3 32  1  0  0  0  0
  4 33  1  0  0  0  0
  5 34  1  0  0  0  0
 10 35  1  0  0  0  0
 13 36  1  0  0  0  0
 15 37  1  0  0  0  0
 16 38  1  0  0  0  0
 18 39  1  0  0  0  0
 19 40  1  0  0  0  0
 21 41  1  0  0  0  0
 24 42  1  0  0  0  0
 25 43  1  0  0  0  0
 25 44  1  0  0  0  0
 25 45  1  0  0  0  0
 26 46  1  0  0  0  0
 26 47  1  0  0  0  0
 27 48  1  0  0  0  0
 28 49  1  0  0  0  0
 28 50  1  0  0  0  0
 29 51  1  0  0  0  0
 29 52  1  0  0  0  0
 30 53  1  0  0  0  0
M  END
> <Name>
30

> <IC50[uM]>
0.003

$$$$
30
  -OEChem-05192314333D
 Structure written by MMmdl.
 53 57  0     1  0  0  0  0  0999 V2000
   -6.3720   12.3564  -12.0094 C   0  0  0  0  0  0  0  0  0  0  0  0
   -6.5328   11.8103  -10.7336 C   0  0  0  0  0  0  0  0  0  0  0  0
   -7.7318   10.5755  -13.0290 C   0  0  0  0  0  0  0  0  0  0  0  0
   -6.9898   11.7633  -13.1279 C   0  0  0  0  0  0  0  0  0  0  0  0
   -7.8210   10.0065  -11.7558 C   0  0  0  0  0  0  0  0  0  0  0  0
   -7.2477   10.6184  -10.6026 C   0  0  0  0  0  0  0  0  0  0  0  0
   -7.6140    9.7458   -9.5136 C   0  0  0  0  0  0  0  0  0  0  0  0
   -8.2690    8.7218   -9.9879 N   0  0  0  0  0  0  0  0  0  0  0  0
   -8.4092    8.8538  -11.2990 N   0  0  0  0  0  0  0  0  0  0  0  0
   -7.3381    9.8926   -8.0280 C   0  0  0  0  0  0  0  0  0  0  0  0
   -4.3458   13.7121  -11.5140 N   0  0  0  0  0  0  0  0  0  0  0  0
   -5.5478   13.6364  -12.1864 C   0  0  0  0  0  0  0  0  0  0  0  0
   -5.9572   14.5395  -12.9136 O   0  0  0  0  0  0  0  0  0  0  0  0
   -5.9581   10.4851   -7.7363 C   0  0  0  0  0  0  0  0  0  0  0  0
   -4.8068    9.7633   -8.0566 C   0  0  0  0  0  0  0  0  0  0  0  0
   -3.5506   10.3101   -7.8085 C   0  0  0  0  0  0  0  0  0  0  0  0
   -3.4405   11.5856   -7.2383 C   0  0  0  0  0  0  0  0  0  0  0  0
   -4.5911   12.3019   -6.9155 C   0  0  0  0  0  0  0  0  0  0  0  0
   -5.8461   11.7538   -7.1583 C   0  0  0  0  0  0  0  0  0  0  0  0
   -2.0993   12.1777   -6.9729 C   0  0  0  0  0  0  0  0  0  0  0  0
   -1.7708   13.4214   -6.4416 C   0  0  0  0  0  0  0  0  0  0  0  0
   -0.4313   13.4856   -6.3949 N   0  0  0  0  0  0  0  0  0  0  0  0
    0.1723   12.4145   -6.8299 N   0  0  0  0  0  0  0  0  0  0  0  0
   -0.8042   11.6008   -7.2039 C   0  0  0  0  0  0  0  0  0  0  0  0
    0.3889   14.5981   -5.9187 C   0  0  0  0  0  0  0  0  0  0  0  0
   -3.6987   12.5799  -10.8351 C   0  0  0  0  0  0  0  0  0  0  0  0
   -2.1930   12.9387  -10.9658 C   0  0  2  0  0  0  0  0  0  0  0  0
   -2.1862   14.4653  -10.9438 C   0  0  0  0  0  0  0  0  0  0  0  0
   -3.5086   14.9068  -11.5988 C   0  0  0  0  0  0  0  0  0  0  0  0
   -1.6500   12.4417  -12.1854 O   0  0  0  0  0  0  0  0  0  0  0  0
   -6.1130   12.2997   -9.8672 H   0  0  0  0  0  0  0  0  0  0  0  0
   -8.2070   10.1267  -13.8888 H   0  0  0  0  0  0  0  0  0  0  0  0
   -7.6747   12.5202  -13.5378 H   0  0  0  0  0  0  0  0  0  0  0  0
   -6.1868   11.5644  -13.8529 H   0  0  0  0  0  0  0  0  0  0  0  0
   -8.0412    9.6089   -7.2589 H   0  0  0  0  0  0  0  0  0  0  0  0
   -5.3324   15.2551  -12.9129 H   0  0  0  0  0  0  0  0  0  0  0  0
   -4.8906    8.7807   -8.4969 H   0  0  0  0  0  0  0  0  0  0  0  0
   -2.6603    9.7509   -8.0557 H   0  0  0  0  0  0  0  0  0  0  0  0
   -4.5083   13.2849   -6.4758 H   0  0  0  0  0  0  0  0  0  0  0  0
   -6.7358   12.3089   -6.9000 H   0  0  0  0  0  0  0  0  0  0  0  0
   -2.4624   14.1888   -6.1268 H   0  0  0  0  0  0  0  0  0  0  0  0
   -0.6455   10.6216   -7.6310 H   0  0  0  0  0  0  0  0  0  0  0  0
    1.4531   14.3351   -6.0101 H   0  0  0  0  0  0  0  0  0  0  0  0
    0.1793   15.4930   -6.5230 H   0  0  0  0  0  0  0  0  0  0  0  0
    0.1513   14.8037   -4.8645 H   0  0  0  0  0  0  0  0  0  0  0  0
   -4.0045   12.5193   -9.7802 H   0  0  0  0  0  0  0  0  0  0  0  0
   -3.9276   11.6290  -11.3384 H   0  0  0  0  0  0  0  0  0  0  0  0
   -1.6452   12.5495  -10.0949 H   0  0  0  0  0  0  0  0  0  0  0  0
   -2.1318   14.8321   -9.9082 H   0  0  0  0  0  0  0  0  0  0  0  0
   -1.3293   14.8517  -11.5151 H   0  0  0  0  0  0  0  0  0  0  0  0
   -3.3493   15.2019  -12.6464 H   0  0  0  0  0  0  0  0  0  0  0  0
   -3.9607   15.7439  -11.0467 H   0  0  0  0  0  0  0  0  0  0  0  0
   -0.7305   12.6738  -12.2410 H   0  0  0  0  0  0  0  0  0  0  0  0
  1  2  1  0  0  0  0
  1  4  1  0  0  0  0
  1 12  2  0  0  0  0
  2  6  2  0  0  0  0
  3  4  1  0  0  0  0
  3  5  2  0  0  0  0
  5  6  1  0  0  0  0
  5  9  1  0  0  0  0
  6  7  1  0  0  0  0
  7  8  1  0  0  0  0
  7 10  2  0  0  0  0
  8  9  2  0  0  0  0
 10 14  1  0  0  0  0
 11 12  1  0  0  0  0
 11 26  1  0  0  0  0
 11 29  1  0  0  0  0
 12 13  1  0  0  0  0
 14 15  2  0  0  0  0
 14 19  1  0  0  0  0
 15 16  1  0  0  0  0
 16 17  2  0  0  0  0
 17 18  1  0  0  0  0
 17 20  1  0  0  0  0
 18 19  2  0  0  0  0
 20 21  2  0  0  0  0
 20 24  1  0  0  0  0
 21 22  1  0  0  0  0
 22 23  1  0  0  0  0
 22 25  1  0  0  0  0
 23 24  2  0  0  0  0
 26 27  1  0  0  0  0
 27 28  1  0  0  0  0
 27 30  1  0  0  0  0
 28 29  1  0  0  0  0
  2 31  1  0  0  0  0
  3 32  1  0  0  0  0
  4 33  1  0  0  0  0
  4 34  1  0  0  0  0
 10 35  1  0  0  0  0
 13 36  1  0  0  0  0
 15 37  1  0  0  0  0
 16 38  1  0  0  0  0
 18 39  1  0  0  0  0
 19 40  1  0  0  0  0
 21 41  1  0  0  0  0
 24 42  1  0  0  0  0
 25 43  1  0  0  0  0
 25 44  1  0  0  0  0
 25 45  1  0  0  0  0
 26 46  1  0  0  0  0
 26 47  1  0  0  0  0
 27 48  1  0  0  0  0
 28 49  1  0  0  0  0
 28 50  1  0  0  0  0
 29 51  1  0  0  0  0
 29 52  1  0  0  0  0
 30 53  1  0  0  0  0
M  END
> <Name>
30

> <IC50[uM]>
0.003

$$$$
30
  -OEChem-05192314333D
 Structure written by MMmdl.
 53 57  0     1  0  0  0  0  0999 V2000
   -6.3720   12.3564  -12.0094 C   0  0  0  0  0  0  0  0  0  0  0  0
   -6.5328   11.8103  -10.7336 C   0  0  0  0  0  0  0  0  0  0  0  0
   -7.7318   10.5755  -13.0290 C   0  0  0  0  0  0  0  0  0  0  0  0
   -6.9898   11.7633  -13.1279 C   0  0  0  0  0  0  0  0  0  0  0  0
   -7.8210   10.0065  -11.7558 C   0  0  0  0  0  0  0  0  0  0  0  0
   -7.2477   10.6184  -10.6026 C   0  0  0  0  0  0  0  0  0  0  0  0
   -7.6140    9.7458   -9.5136 C   0  0  0  0  0  0  0  0  0  0  0  0
   -8.2690    8.7218   -9.9879 N   0  0  0  0  0  0  0  0  0  0  0  0
   -8.4092    8.8538  -11.2990 N   0  0  0  0  0  0  0  0  0  0  0  0
   -7.3381    9.8926   -8.0280 C   0  0  0  0  0  0  0  0  0  0  0  0
   -4.3458   13.7121  -11.5140 N   0  0  0  0  0  0  0  0  0  0  0  0
   -5.5478   13.6364  -12.1864 C   0  0  0  0  0  0  0  0  0  0  0  0
   -5.9572   14.5395  -12.9136 O   0  0  0  0  0  0  0  0  0  0  0  0
   -5.9581   10.4851   -7.7363 C   0  0  0  0  0  0  0  0  0  0  0  0
   -4.8068    9.7633   -8.0566 C   0  0  0  0  0  0  0  0  0  0  0  0
   -3.5506   10.3101   -7.8085 C   0  0  0  0  0  0  0  0  0  0  0  0
   -3.4405   11.5856   -7.2383 C   0  0  0  0  0  0  0  0  0  0  0  0
   -4.5911   12.3019   -6.9155 C   0  0  0  0  0  0  0  0  0  0  0  0
   -5.8461   11.7538   -7.1583 C   0  0  0  0  0  0  0  0  0  0  0  0
   -2.0993   12.1777   -6.9729 C   0  0  0  0  0  0  0  0  0  0  0  0
   -1.7708   13.4214   -6.4416 C   0  0  0  0  0  0  0  0  0  0  0  0
   -0.4313   13.4856   -6.3949 N   0  0  0  0  0  0  0  0  0  0  0  0
    0.1723   12.4145   -6.8299 N   0  0  0  0  0  0  0  0  0  0  0  0
   -0.8042   11.6008   -7.2039 C   0  0  0  0  0  0  0  0  0  0  0  0
    0.3889   14.5981   -5.9187 C   0  0  0  0  0  0  0  0  0  0  0  0
   -3.6987   12.5799  -10.8351 C   0  0  0  0  0  0  0  0  0  0  0  0
   -2.1930   12.9387  -10.9658 C   0  0  2  0  0  0  0  0  0  0  0  0
   -2.1862   14.4653  -10.9438 C   0  0  0  0  0  0  0  0  0  0  0  0
   -3.5086   14.9068  -11.5988 C   0  0  0  0  0  0  0  0  0  0  0  0
   -1.6500   12.4417  -12.1854 O   0  0  0  0  0  0  0  0  0  0  0  0
   -5.5260   11.6309  -10.3284 H   0  0  0  0  0  0  0  0  0  0  0  0
   -7.0459   12.5654  -10.1199 H   0  0  0  0  0  0  0  0  0  0  0  0
   -8.2070   10.1267  -13.8888 H   0  0  0  0  0  0  0  0  0  0  0  0
   -6.8894   12.2377  -14.0929 H   0  0  0  0  0  0  0  0  0  0  0  0
   -8.0412    9.6089   -7.2589 H   0  0  0  0  0  0  0  0  0  0  0  0
   -5.3324   15.2551  -12.9129 H   0  0  0  0  0  0  0  0  0  0  0  0
   -4.8906    8.7807   -8.4969 H   0  0  0  0  0  0  0  0  0  0  0  0
   -2.6603    9.7509   -8.0557 H   0  0  0  0  0  0  0  0  0  0  0  0
   -4.5083   13.2849   -6.4758 H   0  0  0  0  0  0  0  0  0  0  0  0
   -6.7358   12.3089   -6.9000 H   0  0  0  0  0  0  0  0  0  0  0  0
   -2.4624   14.1888   -6.1268 H   0  0  0  0  0  0  0  0  0  0  0  0
   -0.6455   10.6216   -7.6310 H   0  0  0  0  0  0  0  0  0  0  0  0
    1.4531   14.3351   -6.0101 H   0  0  0  0  0  0  0  0  0  0  0  0
    0.1793   15.4930   -6.5230 H   0  0  0  0  0  0  0  0  0  0  0  0
    0.1513   14.8037   -4.8645 H   0  0  0  0  0  0  0  0  0  0  0  0
   -4.0045   12.5193   -9.7802 H   0  0  0  0  0  0  0  0  0  0  0  0
   -3.9276   11.6290  -11.3384 H   0  0  0  0  0  0  0  0  0  0  0  0
   -1.6452   12.5495  -10.0949 H   0  0  0  0  0  0  0  0  0  0  0  0
   -2.1318   14.8321   -9.9082 H   0  0  0  0  0  0  0  0  0  0  0  0
   -1.3293   14.8517  -11.5151 H   0  0  0  0  0  0  0  0  0  0  0  0
   -3.3493   15.2019  -12.6464 H   0  0  0  0  0  0  0  0  0  0  0  0
   -3.9607   15.7439  -11.0467 H   0  0  0  0  0  0  0  0  0  0  0  0
   -0.7305   12.6738  -12.2410 H   0  0  0  0  0  0  0  0  0  0  0  0
  1  2  1  0  0  0  0
  1  4  1  0  0  0  0
  1 12  2  0  0  0  0
  2  6  1  0  0  0  0
  3  4  2  0  0  0  0
  3  5  1  0  0  0  0
  5  6  2  0  0  0  0
  5  9  1  0  0  0  0
  6  7  1  0  0  0  0
  7  8  1  0  0  0  0
  7 10  2  0  0  0  0
  8  9  2  0  0  0  0
 10 14  1  0  0  0  0
 11 12  1  0  0  0  0
 11 26  1  0  0  0  0
 11 29  1  0  0  0  0
 12 13  1  0  0  0  0
 14 15  2  0  0  0  0
 14 19  1  0  0  0  0
 15 16  1  0  0  0  0
 16 17  2  0  0  0  0
 17 18  1  0  0  0  0
 17 20  1  0  0  0  0
 18 19  2  0  0  0  0
 20 21  2  0  0  0  0
 20 24  1  0  0  0  0
 21 22  1  0  0  0  0
 22 23  1  0  0  0  0
 22 25  1  0  0  0  0
 23 24  2  0  0  0  0
 26 27  1  0  0  0  0
 27 28  1  0  0  0  0
 27 30  1  0  0  0  0
 28 29  1  0  0  0  0
  2 31  1  0  0  0  0
  2 32  1  0  0  0  0
  3 33  1  0  0  0  0
  4 34  1  0  0  0  0
 10 35  1  0  0  0  0
 13 36  1  0  0  0  0
 15 37  1  0  0  0  0
 16 38  1  0  0  0  0
 18 39  1  0  0  0  0
 19 40  1  0  0  0  0
 21 41  1  0  0  0  0
 24 42  1  0  0  0  0
 25 43  1  0  0  0  0
 25 44  1  0  0  0  0
 25 45  1  0  0  0  0
 26 46  1  0  0  0  0
 26 47  1  0  0  0  0
 27 48  1  0  0  0  0
 28 49  1  0  0  0  0
 28 50  1  0  0  0  0
 29 51  1  0  0  0  0
 29 52  1  0  0  0  0
 30 53  1  0  0  0  0
M  END
> <Name>
30

> <IC50[uM]>
0.003

$$$$
30
  -OEChem-05192314333D
 Structure written by MMmdl.
 53 57  0     1  0  0  0  0  0999 V2000
   -6.3720   12.3564  -12.0094 C   0  0  0  0  0  0  0  0  0  0  0  0
   -6.5328   11.8103  -10.7336 C   0  0  0  0  0  0  0  0  0  0  0  0
   -7.7318   10.5755  -13.0290 C   0  0  0  0  0  0  0  0  0  0  0  0
   -6.9898   11.7633  -13.1279 C   0  0  0  0  0  0  0  0  0  0  0  0
   -7.8210   10.0065  -11.7558 C   0  0  0  0  0  0  0  0  0  0  0  0
   -7.2477   10.6184  -10.6026 C   0  0  0  0  0  0  0  0  0  0  0  0
   -7.6140    9.7458   -9.5136 C   0  0  0  0  0  0  0  0  0  0  0  0
   -8.2690    8.7218   -9.9879 N   0  0  0  0  0  0  0  0  0  0  0  0
   -8.4092    8.8538  -11.2990 N   0  0  0  0  0  0  0  0  0  0  0  0
   -7.3381    9.8926   -8.0280 C   0  0  0  0  0  0  0  0  0  0  0  0
   -4.3458   13.7121  -11.5140 N   0  0  0  0  0  0  0  0  0  0  0  0
   -5.5478   13.6364  -12.1864 C   0  0  0  0  0  0  0  0  0  0  0  0
   -5.9572   14.5395  -12.9136 O   0  0  0  0  0  0  0  0  0  0  0  0
   -5.9581   10.4851   -7.7363 C   0  0  0  0  0  0  0  0  0  0  0  0
   -4.8068    9.7633   -8.0566 C   0  0  0  0  0  0  0  0  0  0  0  0
   -3.5506   10.3101   -7.8085 C   0  0  0  0  0  0  0  0  0  0  0  0
   -3.4405   11.5856   -7.2383 C   0  0  0  0  0  0  0  0  0  0  0  0
   -4.5911   12.3019   -6.9155 C   0  0  0  0  0  0  0  0  0  0  0  0
   -5.8461   11.7538   -7.1583 C   0  0  0  0  0  0  0  0  0  0  0  0
   -2.0993   12.1777   -6.9729 C   0  0  0  0  0  0  0  0  0  0  0  0
   -1.7708   13.4214   -6.4416 C   0  0  0  0  0  0  0  0  0  0  0  0
   -0.4313   13.4856   -6.3949 N   0  0  0  0  0  0  0  0  0  0  0  0
    0.1723   12.4145   -6.8299 N   0  0  0  0  0  0  0  0  0  0  0  0
   -0.8042   11.6008   -7.2039 C   0  0  0  0  0  0  0  0  0  0  0  0
    0.3889   14.5981   -5.9187 C   0  0  0  0  0  0  0  0  0  0  0  0
   -3.6987   12.5799  -10.8351 C   0  0  0  0  0  0  0  0  0  0  0  0
   -2.1930   12.9387  -10.9658 C   0  0  2  0  0  0  0  0  0  0  0  0
   -2.1862   14.4653  -10.9438 C   0  0  0  0  0  0  0  0  0  0  0  0
   -3.5086   14.9068  -11.5988 C   0  0  0  0  0  0  0  0  0  0  0  0
   -1.6500   12.4417  -12.1854 O   0  0  0  0  0  0  0  0  0  0  0  0
   -6.1130   12.2997   -9.8672 H   0  0  0  0  0  0  0  0  0  0  0  0
   -8.2070   10.1267  -13.8888 H   0  0  0  0  0  0  0  0  0  0  0  0
   -6.8894   12.2377  -14.0929 H   0  0  0  0  0  0  0  0  0  0  0  0
   -8.0412    9.6089   -7.2589 H   0  0  0  0  0  0  0  0  0  0  0  0
   -5.3324   15.2551  -12.9129 H   0  0  0  0  0  0  0  0  0  0  0  0
   -4.8906    8.7807   -8.4969 H   0  0  0  0  0  0  0  0  0  0  0  0
   -2.6603    9.7509   -8.0557 H   0  0  0  0  0  0  0  0  0  0  0  0
   -3.4412   12.0353   -8.2422 H   0  0  0  0  0  0  0  0  0  0  0  0
   -4.5083   13.2849   -6.4758 H   0  0  0  0  0  0  0  0  0  0  0  0
   -6.7358   12.3089   -6.9000 H   0  0  0  0  0  0  0  0  0  0  0  0
   -2.4624   14.1888   -6.1268 H   0  0  0  0  0  0  0  0  0  0  0  0
   -0.6455   10.6216   -7.6310 H   0  0  0  0  0  0  0  0  0  0  0  0
    1.4531   14.3351   -6.0101 H   0  0  0  0  0  0  0  0  0  0  0  0
    0.1793   15.4930   -6.5230 H   0  0  0  0  0  0  0  0  0  0  0  0
    0.1513   14.8037   -4.8645 H   0  0  0  0  0  0  0  0  0  0  0  0
   -4.0045   12.5193   -9.7802 H   0  0  0  0  0  0  0  0  0  0  0  0
   -3.9276   11.6290  -11.3384 H   0  0  0  0  0  0  0  0  0  0  0  0
   -1.6452   12.5495  -10.0949 H   0  0  0  0  0  0  0  0  0  0  0  0
   -2.1318   14.8321   -9.9082 H   0  0  0  0  0  0  0  0  0  0  0  0
   -1.3293   14.8517  -11.5151 H   0  0  0  0  0  0  0  0  0  0  0  0
   -3.3493   15.2019  -12.6464 H   0  0  0  0  0  0  0  0  0  0  0  0
   -3.9607   15.7439  -11.0467 H   0  0  0  0  0  0  0  0  0  0  0  0
   -0.7305   12.6738  -12.2410 H   0  0  0  0  0  0  0  0  0  0  0  0
  1  2  1  0  0  0  0
  1  4  1  0  0  0  0
  1 12  2  0  0  0  0
  2  6  2  0  0  0  0
  3  4  2  0  0  0  0
  3  5  1  0  0  0  0
  5  6  1  0  0  0  0
  5  9  2  0  0  0  0
  6  7  1  0  0  0  0
  7  8  2  0  0  0  0
  7 10  1  0  0  0  0
  8  9  1  0  0  0  0
 10 14  2  0  0  0  0
 11 12  1  0  0  0  0
 11 26  1  0  0  0  0
 11 29  1  0  0  0  0
 12 13  1  0  0  0  0
 14 15  1  0  0  0  0
 14 19  1  0  0  0  0
 15 16  2  0  0  0  0
 16 17  1  0  0  0  0
 17 18  1  0  0  0  0
 17 20  1  0  0  0  0
 18 19  2  0  0  0  0
 20 21  2  0  0  0  0
 20 24  1  0  0  0  0
 21 22  1  0  0  0  0
 22 23  1  0  0  0  0
 22 25  1  0  0  0  0
 23 24  2  0  0  0  0
 26 27  1  0  0  0  0
 27 28  1  0  0  0  0
 27 30  1  0  0  0  0
 28 29  1  0  0  0  0
  2 31  1  0  0  0  0
  3 32  1  0  0  0  0
  4 33  1  0  0  0  0
 10 34  1  0  0  0  0
 13 35  1  0  0  0  0
 15 36  1  0  0  0  0
 16 37  1  0  0  0  0
 17 38  1  0  0  0  0
 18 39  1  0  0  0  0
 19 40  1  0  0  0  0
 21 41  1  0  0  0  0
 24 42  1  0  0  0  0
 25 43  1  0  0  0  0
 25 44  1  0  0  0  0
 25 45  1  0  0  0  0
 26 46  1  0  0  0  0
 26 47  1  0  0  0  0
 27 48  1  0  0  0  0
 28 49  1  0  0  0  0
 28 50  1  0  0  0  0
 29 51  1  0  0  0  0
 29 52  1  0  0  0  0
 30 53  1  0  0  0  0
M  END
> <Name>
30

> <IC50[uM]>
0.003

$$$$
30
  -OEChem-05192314333D
 Structure written by MMmdl.
 53 57  0     1  0  0  0  0  0999 V2000
   -6.3720   12.3564  -12.0094 C   0  0  0  0  0  0  0  0  0  0  0  0
   -6.5328   11.8103  -10.7336 C   0  0  0  0  0  0  0  0  0  0  0  0
   -7.7318   10.5755  -13.0290 C   0  0  0  0  0  0  0  0  0  0  0  0
   -6.9898   11.7633  -13.1279 C   0  0  0  0  0  0  0  0  0  0  0  0
   -7.8210   10.0065  -11.7558 C   0  0  0  0  0  0  0  0  0  0  0  0
   -7.2477   10.6184  -10.6026 C   0  0  0  0  0  0  0  0  0  0  0  0
   -7.6140    9.7458   -9.5136 C   0  0  0  0  0  0  0  0  0  0  0  0
   -8.2690    8.7218   -9.9879 N   0  0  0  0  0  0  0  0  0  0  0  0
   -8.4092    8.8538  -11.2990 N   0  0  0  0  0  0  0  0  0  0  0  0
   -7.3381    9.8926   -8.0280 C   0  0  0  0  0  0  0  0  0  0  0  0
   -4.3458   13.7121  -11.5140 N   0  0  0  0  0  0  0  0  0  0  0  0
   -5.5478   13.6364  -12.1864 C   0  0  0  0  0  0  0  0  0  0  0  0
   -5.9572   14.5395  -12.9136 O   0  0  0  0  0  0  0  0  0  0  0  0
   -5.9581   10.4851   -7.7363 C   0  0  0  0  0  0  0  0  0  0  0  0
   -4.8068    9.7633   -8.0566 C   0  0  0  0  0  0  0  0  0  0  0  0
   -3.5506   10.3101   -7.8085 C   0  0  0  0  0  0  0  0  0  0  0  0
   -3.4405   11.5856   -7.2383 C   0  0  0  0  0  0  0  0  0  0  0  0
   -4.5911   12.3019   -6.9155 C   0  0  0  0  0  0  0  0  0  0  0  0
   -5.8461   11.7538   -7.1583 C   0  0  0  0  0  0  0  0  0  0  0  0
   -2.0993   12.1777   -6.9729 C   0  0  0  0  0  0  0  0  0  0  0  0
   -1.7708   13.4214   -6.4416 C   0  0  0  0  0  0  0  0  0  0  0  0
   -0.4313   13.4856   -6.3949 N   0  0  0  0  0  0  0  0  0  0  0  0
    0.1723   12.4145   -6.8299 N   0  0  0  0  0  0  0  0  0  0  0  0
   -0.8042   11.6008   -7.2039 C   0  0  0  0  0  0  0  0  0  0  0  0
    0.3889   14.5981   -5.9187 C   0  0  0  0  0  0  0  0  0  0  0  0
   -3.6987   12.5799  -10.8351 C   0  0  0  0  0  0  0  0  0  0  0  0
   -2.1930   12.9387  -10.9658 C   0  0  2  0  0  0  0  0  0  0  0  0
   -2.1862   14.4653  -10.9438 C   0  0  0  0  0  0  0  0  0  0  0  0
   -3.5086   14.9068  -11.5988 C   0  0  0  0  0  0  0  0  0  0  0  0
   -1.6500   12.4417  -12.1854 O   0  0  0  0  0  0  0  0  0  0  0  0
   -6.1130   12.2997   -9.8672 H   0  0  0  0  0  0  0  0  0  0  0  0
   -8.2070   10.1267  -13.8888 H   0  0  0  0  0  0  0  0  0  0  0  0
   -6.8894   12.2377  -14.0929 H   0  0  0  0  0  0  0  0  0  0  0  0
   -8.0412    9.6089   -7.2589 H   0  0  0  0  0  0  0  0  0  0  0  0
   -5.3324   15.2551  -12.9129 H   0  0  0  0  0  0  0  0  0  0  0  0
   -4.8906    8.7807   -8.4969 H   0  0  0  0  0  0  0  0  0  0  0  0
   -2.6603    9.7509   -8.0557 H   0  0  0  0  0  0  0  0  0  0  0  0
   -4.5083   13.2849   -6.4758 H   0  0  0  0  0  0  0  0  0  0  0  0
   -6.3740   12.4529   -7.8236 H   0  0  0  0  0  0  0  0  0  0  0  0
   -6.3646   11.7075   -6.1893 H   0  0  0  0  0  0  0  0  0  0  0  0
   -2.4624   14.1888   -6.1268 H   0  0  0  0  0  0  0  0  0  0  0  0
   -0.6455   10.6216   -7.6310 H   0  0  0  0  0  0  0  0  0  0  0  0
    1.4531   14.3351   -6.0101 H   0  0  0  0  0  0  0  0  0  0  0  0
    0.1793   15.4930   -6.5230 H   0  0  0  0  0  0  0  0  0  0  0  0
    0.1513   14.8037   -4.8645 H   0  0  0  0  0  0  0  0  0  0  0  0
   -4.0045   12.5193   -9.7802 H   0  0  0  0  0  0  0  0  0  0  0  0
   -3.9276   11.6290  -11.3384 H   0  0  0  0  0  0  0  0  0  0  0  0
   -1.6452   12.5495  -10.0949 H   0  0  0  0  0  0  0  0  0  0  0  0
   -2.1318   14.8321   -9.9082 H   0  0  0  0  0  0  0  0  0  0  0  0
   -1.3293   14.8517  -11.5151 H   0  0  0  0  0  0  0  0  0  0  0  0
   -3.3493   15.2019  -12.6464 H   0  0  0  0  0  0  0  0  0  0  0  0
   -3.9607   15.7439  -11.0467 H   0  0  0  0  0  0  0  0  0  0  0  0
   -0.7305   12.6738  -12.2410 H   0  0  0  0  0  0  0  0  0  0  0  0
  1  2  1  0  0  0  0
  1  4  1  0  0  0  0
  1 12  2  0  0  0  0
  2  6  2  0  0  0  0
  3  4  2  0  0  0  0
  3  5  1  0  0  0  0
  5  6  1  0  0  0  0
  5  9  2  0  0  0  0
  6  7  1  0  0  0  0
  7  8  2  0  0  0  0
  7 10  1  0  0  0  0
  8  9  1  0  0  0  0
 10 14  2  0  0  0  0
 11 12  1  0  0  0  0
 11 26  1  0  0  0  0
 11 29  1  0  0  0  0
 12 13  1  0  0  0  0
 14 15  1  0  0  0  0
 14 19  1  0  0  0  0
 15 16  2  0  0  0  0
 16 17  1  0  0  0  0
 17 18  2  0  0  0  0
 17 20  1  0  0  0  0
 18 19  1  0  0  0  0
 20 21  2  0  0  0  0
 20 24  1  0  0  0  0
 21 22  1  0  0  0  0
 22 23  1  0  0  0  0
 22 25  1  0  0  0  0
 23 24  2  0  0  0  0
 26 27  1  0  0  0  0
 27 28  1  0  0  0  0
 27 30  1  0  0  0  0
 28 29  1  0  0  0  0
  2 31  1  0  0  0  0
  3 32  1  0  0  0  0
  4 33  1  0  0  0  0
 10 34  1  0  0  0  0
 13 35  1  0  0  0  0
 15 36  1  0  0  0  0
 16 37  1  0  0  0  0
 18 38  1  0  0  0  0
 19 39  1  0  0  0  0
 19 40  1  0  0  0  0
 21 41  1  0  0  0  0
 24 42  1  0  0  0  0
 25 43  1  0  0  0  0
 25 44  1  0  0  0  0
 25 45  1  0  0  0  0
 26 46  1  0  0  0  0
 26 47  1  0  0  0  0
 27 48  1  0  0  0  0
 28 49  1  0  0  0  0
 28 50  1  0  0  0  0
 29 51  1  0  0  0  0
 29 52  1  0  0  0  0
 30 53  1  0  0  0  0
M  END
> <Name>
30

> <IC50[uM]>
0.003

$$$$
