29
  -OEChem-05192314333D
 Structure written by MMmdl.
 50 54  0     0  0  0  0  0  0999 V2000
   -6.3727   12.3493  -11.9877 C   0  0  0  0  0  0  0  0  0  0  0  0
   -6.5190   11.8167  -10.7261 C   0  0  0  0  0  0  0  0  0  0  0  0
   -7.6919   10.5755  -13.0077 C   0  0  0  0  0  0  0  0  0  0  0  0
   -6.9476   11.7646  -13.1157 C   0  0  0  0  0  0  0  0  0  0  0  0
   -7.8131   10.0080  -11.7494 C   0  0  0  0  0  0  0  0  0  0  0  0
   -7.2399   10.6155  -10.5946 C   0  0  0  0  0  0  0  0  0  0  0  0
   -7.6088    9.7430   -9.5107 C   0  0  0  0  0  0  0  0  0  0  0  0
   -8.2764    8.7286   -9.9647 N   0  0  0  0  0  0  0  0  0  0  0  0
   -8.4188    8.8758  -11.2882 N   0  0  0  0  0  0  0  0  0  0  0  0
   -7.3326    9.8988   -8.0180 C   0  0  0  0  0  0  0  0  0  0  0  0
   -5.4060   13.8057  -12.2007 S   0  0  0  0  0  0  0  0  0  0  0  0
   -5.9763   10.4855   -7.7248 C   0  0  0  0  0  0  0  0  0  0  0  0
   -5.8692   11.7523   -7.1523 C   0  0  0  0  0  0  0  0  0  0  0  0
   -4.6115   12.3005   -6.8946 C   0  0  0  0  0  0  0  0  0  0  0  0
   -3.4415   11.5837   -7.2014 C   0  0  0  0  0  0  0  0  0  0  0  0
   -3.5677   10.3182   -7.7642 C   0  0  0  0  0  0  0  0  0  0  0  0
   -4.8209    9.7630   -8.0308 C   0  0  0  0  0  0  0  0  0  0  0  0
   -2.1027   12.1584   -6.9334 C   0  0  0  0  0  0  0  0  0  0  0  0
   -1.7604   13.4248   -6.4226 C   0  0  0  0  0  0  0  0  0  0  0  0
   -0.4260   13.4533   -6.3925 N   0  0  0  0  0  0  0  0  0  0  0  0
    0.1594   12.3444   -6.7934 N   0  0  0  0  0  0  0  0  0  0  0  0
   -0.8210   11.5507   -7.1379 C   0  0  0  0  0  0  0  0  0  0  0  0
    0.4194   14.5816   -5.9703 C   0  0  0  0  0  0  0  0  0  0  0  0
   -4.4605   13.4170  -13.2280 O   0  0  0  0  0  0  0  0  0  0  0  0
   -6.3362   14.9020  -12.4291 O   0  0  0  0  0  0  0  0  0  0  0  0
   -4.5495   14.1196  -10.6911 N   0  0  0  0  0  0  0  0  0  0  0  0
   -3.3000   13.4420  -10.3686 C   0  0  0  0  0  0  0  0  0  0  0  0
   -2.0717   13.9935  -11.0748 C   0  0  0  0  0  0  0  0  0  0  0  0
   -2.2627   14.2439   -9.6094 C   0  0  0  0  0  0  0  0  0  0  0  0
   -6.0929   12.3066   -9.8631 H   0  0  0  0  0  0  0  0  0  0  0  0
   -8.1517   10.1219  -13.8733 H   0  0  0  0  0  0  0  0  0  0  0  0
   -6.8202   12.2294  -14.0822 H   0  0  0  0  0  0  0  0  0  0  0  0
   -8.6255    7.9663   -9.4196 H   0  0  0  0  0  0  0  0  0  0  0  0
   -8.0999   10.5589   -7.5873 H   0  0  0  0  0  0  0  0  0  0  0  0
   -7.3945    8.9074   -7.5454 H   0  0  0  0  0  0  0  0  0  0  0  0
   -6.7609   12.3104   -6.9078 H   0  0  0  0  0  0  0  0  0  0  0  0
   -4.5365   13.2843   -6.4555 H   0  0  0  0  0  0  0  0  0  0  0  0
   -2.6780    9.7532   -7.9999 H   0  0  0  0  0  0  0  0  0  0  0  0
   -4.8963    8.7799   -8.4714 H   0  0  0  0  0  0  0  0  0  0  0  0
   -2.4366   14.2100   -6.1184 H   0  0  0  0  0  0  0  0  0  0  0  0
   -0.6813   10.5543   -7.5304 H   0  0  0  0  0  0  0  0  0  0  0  0
    1.4790   14.3012   -6.0627 H   0  0  0  0  0  0  0  0  0  0  0  0
    0.2138   15.4529   -6.6095 H   0  0  0  0  0  0  0  0  0  0  0  0
    0.1971   14.8344   -4.9231 H   0  0  0  0  0  0  0  0  0  0  0  0
   -4.3503   15.0995  -10.6784 H   0  0  0  0  0  0  0  0  0  0  0  0
   -3.3270   12.3575  -10.1868 H   0  0  0  0  0  0  0  0  0  0  0  0
   -1.2811   13.3093  -11.4167 H   0  0  0  0  0  0  0  0  0  0  0  0
   -2.1756   14.8213  -11.7917 H   0  0  0  0  0  0  0  0  0  0  0  0
   -2.5050   15.2560   -9.2530 H   0  0  0  0  0  0  0  0  0  0  0  0
   -1.6106   13.7440   -8.8781 H   0  0  0  0  0  0  0  0  0  0  0  0
  1  2  2  0  0  0  0
  1  4  1  0  0  0  0
  1 11  1  0  0  0  0
  2  6  1  0  0  0  0
  3  4  2  0  0  0  0
  3  5  1  0  0  0  0
  5  6  1  0  0  0  0
  5  9  2  0  0  0  0
  6  7  2  0  0  0  0
  7  8  1  0  0  0  0
  7 10  1  0  0  0  0
  8  9  1  0  0  0  0
 10 12  1  0  0  0  0
 11 24  2  0  0  0  0
 11 25  2  0  0  0  0
 11 26  1  0  0  0  0
 12 13  2  0  0  0  0
 12 17  1  0  0  0  0
 13 14  1  0  0  0  0
 14 15  2  0  0  0  0
 15 16  1  0  0  0  0
 15 18  1  0  0  0  0
 16 17  2  0  0  0  0
 18 19  2  0  0  0  0
 18 22  1  0  0  0  0
 19 20  1  0  0  0  0
 20 21  1  0  0  0  0
 20 23  1  0  0  0  0
 21 22  2  0  0  0  0
 26 27  1  0  0  0  0
 27 28  1  0  0  0  0
 27 29  1  0  0  0  0
 28 29  1  0  0  0  0
  2 30  1  0  0  0  0
  3 31  1  0  0  0  0
  4 32  1  0  0  0  0
  8 33  1  0  0  0  0
 10 34  1  0  0  0  0
 10 35  1  0  0  0  0
 13 36  1  0  0  0  0
 14 37  1  0  0  0  0
 16 38  1  0  0  0  0
 17 39  1  0  0  0  0
 19 40  1  0  0  0  0
 22 41  1  0  0  0  0
 23 42  1  0  0  0  0
 23 43  1  0  0  0  0
 23 44  1  0  0  0  0
 26 45  1  0  0  0  0
 27 46  1  0  0  0  0
 28 47  1  0  0  0  0
 28 48  1  0  0  0  0
 29 49  1  0  0  0  0
 29 50  1  0  0  0  0
M  END
> <Name>
29

> <IC50[uM]>
0.18

$$$$
29
  -OEChem-05192314333D
 Structure written by MMmdl.
 50 54  0     0  0  0  0  0  0999 V2000
   -6.3727   12.3493  -11.9877 C   0  0  0  0  0  0  0  0  0  0  0  0
   -6.5190   11.8167  -10.7261 C   0  0  0  0  0  0  0  0  0  0  0  0
   -7.6919   10.5755  -13.0077 C   0  0  0  0  0  0  0  0  0  0  0  0
   -6.9476   11.7646  -13.1157 C   0  0  0  0  0  0  0  0  0  0  0  0
   -7.8131   10.0080  -11.7494 C   0  0  0  0  0  0  0  0  0  0  0  0
   -7.2399   10.6155  -10.5946 C   0  0  0  0  0  0  0  0  0  0  0  0
   -7.6088    9.7430   -9.5107 C   0  0  0  0  0  0  0  0  0  0  0  0
   -8.2764    8.7286   -9.9647 N   0  0  0  0  0  0  0  0  0  0  0  0
   -8.4188    8.8758  -11.2882 N   0  0  0  0  0  0  0  0  0  0  0  0
   -7.3326    9.8988   -8.0180 C   0  0  0  0  0  0  0  0  0  0  0  0
   -5.4060   13.8057  -12.2007 S   0  0  0  0  0  0  0  0  0  0  0  0
   -5.9763   10.4855   -7.7248 C   0  0  0  0  0  0  0  0  0  0  0  0
   -5.8692   11.7523   -7.1523 C   0  0  0  0  0  0  0  0  0  0  0  0
   -4.6115   12.3005   -6.8946 C   0  0  0  0  0  0  0  0  0  0  0  0
   -3.4415   11.5837   -7.2014 C   0  0  0  0  0  0  0  0  0  0  0  0
   -3.5677   10.3182   -7.7642 C   0  0  0  0  0  0  0  0  0  0  0  0
   -4.8209    9.7630   -8.0308 C   0  0  0  0  0  0  0  0  0  0  0  0
   -2.1027   12.1584   -6.9334 C   0  0  0  0  0  0  0  0  0  0  0  0
   -1.7604   13.4248   -6.4226 C   0  0  0  0  0  0  0  0  0  0  0  0
   -0.4260   13.4533   -6.3925 N   0  0  0  0  0  0  0  0  0  0  0  0
    0.1594   12.3444   -6.7934 N   0  0  0  0  0  0  0  0  0  0  0  0
   -0.8210   11.5507   -7.1379 C   0  0  0  0  0  0  0  0  0  0  0  0
    0.4194   14.5816   -5.9703 C   0  0  0  0  0  0  0  0  0  0  0  0
   -4.4605   13.4170  -13.2280 O   0  0  0  0  0  0  0  0  0  0  0  0
   -6.3362   14.9020  -12.4291 O   0  0  0  0  0  0  0  0  0  0  0  0
   -4.5495   14.1196  -10.6911 N   0  0  0  0  0  0  0  0  0  0  0  0
   -3.3000   13.4420  -10.3686 C   0  0  0  0  0  0  0  0  0  0  0  0
   -2.0717   13.9935  -11.0748 C   0  0  0  0  0  0  0  0  0  0  0  0
   -2.2627   14.2439   -9.6094 C   0  0  0  0  0  0  0  0  0  0  0  0
   -6.0929   12.3066   -9.8631 H   0  0  0  0  0  0  0  0  0  0  0  0
   -8.1517   10.1219  -13.8733 H   0  0  0  0  0  0  0  0  0  0  0  0
   -6.8202   12.2294  -14.0822 H   0  0  0  0  0  0  0  0  0  0  0  0
   -8.9122    8.2303  -11.8712 H   0  0  0  0  0  0  0  0  0  0  0  0
   -8.0999   10.5589   -7.5873 H   0  0  0  0  0  0  0  0  0  0  0  0
   -7.3945    8.9074   -7.5454 H   0  0  0  0  0  0  0  0  0  0  0  0
   -6.7609   12.3104   -6.9078 H   0  0  0  0  0  0  0  0  0  0  0  0
   -4.5365   13.2843   -6.4555 H   0  0  0  0  0  0  0  0  0  0  0  0
   -2.6780    9.7532   -7.9999 H   0  0  0  0  0  0  0  0  0  0  0  0
   -4.8963    8.7799   -8.4714 H   0  0  0  0  0  0  0  0  0  0  0  0
   -2.4366   14.2100   -6.1184 H   0  0  0  0  0  0  0  0  0  0  0  0
   -0.6813   10.5543   -7.5304 H   0  0  0  0  0  0  0  0  0  0  0  0
    1.4790   14.3012   -6.0627 H   0  0  0  0  0  0  0  0  0  0  0  0
    0.2138   15.4529   -6.6095 H   0  0  0  0  0  0  0  0  0  0  0  0
    0.1971   14.8344   -4.9231 H   0  0  0  0  0  0  0  0  0  0  0  0
   -4.3503   15.0995  -10.6784 H   0  0  0  0  0  0  0  0  0  0  0  0
   -3.3270   12.3575  -10.1868 H   0  0  0  0  0  0  0  0  0  0  0  0
   -1.2811   13.3093  -11.4167 H   0  0  0  0  0  0  0  0  0  0  0  0
   -2.1756   14.8213  -11.7917 H   0  0  0  0  0  0  0  0  0  0  0  0
   -2.5050   15.2560   -9.2530 H   0  0  0  0  0  0  0  0  0  0  0  0
   -1.6106   13.7440   -8.8781 H   0  0  0  0  0  0  0  0  0  0  0  0
  1  2  2  0  0  0  0
  1  4  1  0  0  0  0
  1 11  1  0  0  0  0
  2  6  1  0  0  0  0
  3  4  2  0  0  0  0
  3  5  1  0  0  0  0
  5  6  2  0  0  0  0
  5  9  1  0  0  0  0
  6  7  1  0  0  0  0
  7  8  2  0  0  0  0
  7 10  1  0  0  0  0
  8  9  1  0  0  0  0
 10 12  1  0  0  0  0
 11 24  2  0  0  0  0
 11 25  2  0  0  0  0
 11 26  1  0  0  0  0
 12 13  2  0  0  0  0
 12 17  1  0  0  0  0
 13 14  1  0  0  0  0
 14 15  2  0  0  0  0
 15 16  1  0  0  0  0
 15 18  1  0  0  0  0
 16 17  2  0  0  0  0
 18 19  2  0  0  0  0
 18 22  1  0  0  0  0
 19 20  1  0  0  0  0
 20 21  1  0  0  0  0
 20 23  1  0  0  0  0
 21 22  2  0  0  0  0
 26 27  1  0  0  0  0
 27 28  1  0  0  0  0
 27 29  1  0  0  0  0
 28 29  1  0  0  0  0
  2 30  1  0  0  0  0
  3 31  1  0  0  0  0
  4 32  1  0  0  0  0
  9 33  1  0  0  0  0
 10 34  1  0  0  0  0
 10 35  1  0  0  0  0
 13 36  1  0  0  0  0
 14 37  1  0  0  0  0
 16 38  1  0  0  0  0
 17 39  1  0  0  0  0
 19 40  1  0  0  0  0
 22 41  1  0  0  0  0
 23 42  1  0  0  0  0
 23 43  1  0  0  0  0
 23 44  1  0  0  0  0
 26 45  1  0  0  0  0
 27 46  1  0  0  0  0
 28 47  1  0  0  0  0
 28 48  1  0  0  0  0
 29 49  1  0  0  0  0
 29 50  1  0  0  0  0
M  END
> <Name>
29

> <IC50[uM]>
0.18

$$$$
29
  -OEChem-05192314333D
 Structure written by MMmdl.
 50 54  0     1  0  0  0  0  0999 V2000
   -6.3727   12.3493  -11.9877 C   0  0  0  0  0  0  0  0  0  0  0  0
   -6.5190   11.8167  -10.7261 C   0  0  0  0  0  0  0  0  0  0  0  0
   -7.6919   10.5755  -13.0077 C   0  0  0  0  0  0  0  0  0  0  0  0
   -6.9476   11.7646  -13.1157 C   0  0  0  0  0  0  0  0  0  0  0  0
   -7.8131   10.0080  -11.7494 C   0  0  0  0  0  0  0  0  0  0  0  0
   -7.2399   10.6155  -10.5946 C   0  0  0  0  0  0  0  0  0  0  0  0
   -7.6088    9.7430   -9.5107 C   0  0  3  0  0  0  0  0  0  0  0  0
   -8.2764    8.7286   -9.9647 N   0  0  0  0  0  0  0  0  0  0  0  0
   -8.4188    8.8758  -11.2882 N   0  0  0  0  0  0  0  0  0  0  0  0
   -7.3326    9.8988   -8.0180 C   0  0  0  0  0  0  0  0  0  0  0  0
   -5.4060   13.8057  -12.2007 S   0  0  0  0  0  0  0  0  0  0  0  0
   -5.9763   10.4855   -7.7248 C   0  0  0  0  0  0  0  0  0  0  0  0
   -5.8692   11.7523   -7.1523 C   0  0  0  0  0  0  0  0  0  0  0  0
   -4.6115   12.3005   -6.8946 C   0  0  0  0  0  0  0  0  0  0  0  0
   -3.4415   11.5837   -7.2014 C   0  0  0  0  0  0  0  0  0  0  0  0
   -3.5677   10.3182   -7.7642 C   0  0  0  0  0  0  0  0  0  0  0  0
   -4.8209    9.7630   -8.0308 C   0  0  0  0  0  0  0  0  0  0  0  0
   -2.1027   12.1584   -6.9334 C   0  0  0  0  0  0  0  0  0  0  0  0
   -1.7604   13.4248   -6.4226 C   0  0  0  0  0  0  0  0  0  0  0  0
   -0.4260   13.4533   -6.3925 N   0  0  0  0  0  0  0  0  0  0  0  0
    0.1594   12.3444   -6.7934 N   0  0  0  0  0  0  0  0  0  0  0  0
   -0.8210   11.5507   -7.1379 C   0  0  0  0  0  0  0  0  0  0  0  0
    0.4194   14.5816   -5.9703 C   0  0  0  0  0  0  0  0  0  0  0  0
   -4.4605   13.4170  -13.2280 O   0  0  0  0  0  0  0  0  0  0  0  0
   -6.3362   14.9020  -12.4291 O   0  0  0  0  0  0  0  0  0  0  0  0
   -4.5495   14.1196  -10.6911 N   0  0  0  0  0  0  0  0  0  0  0  0
   -3.3000   13.4420  -10.3686 C   0  0  0  0  0  0  0  0  0  0  0  0
   -2.0717   13.9935  -11.0748 C   0  0  0  0  0  0  0  0  0  0  0  0
   -2.2627   14.2439   -9.6094 C   0  0  0  0  0  0  0  0  0  0  0  0
   -6.0929   12.3066   -9.8631 H   0  0  0  0  0  0  0  0  0  0  0  0
   -8.1517   10.1219  -13.8733 H   0  0  0  0  0  0  0  0  0  0  0  0
   -6.8202   12.2294  -14.0822 H   0  0  0  0  0  0  0  0  0  0  0  0
   -6.6681    9.1858   -9.6318 H   0  0  0  0  0  0  0  0  0  0  0  0
   -8.0999   10.5589   -7.5873 H   0  0  0  0  0  0  0  0  0  0  0  0
   -7.3945    8.9074   -7.5454 H   0  0  0  0  0  0  0  0  0  0  0  0
   -6.7609   12.3104   -6.9078 H   0  0  0  0  0  0  0  0  0  0  0  0
   -4.5365   13.2843   -6.4555 H   0  0  0  0  0  0  0  0  0  0  0  0
   -2.6780    9.7532   -7.9999 H   0  0  0  0  0  0  0  0  0  0  0  0
   -4.8963    8.7799   -8.4714 H   0  0  0  0  0  0  0  0  0  0  0  0
   -2.4366   14.2100   -6.1184 H   0  0  0  0  0  0  0  0  0  0  0  0
   -0.6813   10.5543   -7.5304 H   0  0  0  0  0  0  0  0  0  0  0  0
    1.4790   14.3012   -6.0627 H   0  0  0  0  0  0  0  0  0  0  0  0
    0.2138   15.4529   -6.6095 H   0  0  0  0  0  0  0  0  0  0  0  0
    0.1971   14.8344   -4.9231 H   0  0  0  0  0  0  0  0  0  0  0  0
   -4.3503   15.0995  -10.6784 H   0  0  0  0  0  0  0  0  0  0  0  0
   -3.3270   12.3575  -10.1868 H   0  0  0  0  0  0  0  0  0  0  0  0
   -1.2811   13.3093  -11.4167 H   0  0  0  0  0  0  0  0  0  0  0  0
   -2.1756   14.8213  -11.7917 H   0  0  0  0  0  0  0  0  0  0  0  0
   -2.5050   15.2560   -9.2530 H   0  0  0  0  0  0  0  0  0  0  0  0
   -1.6106   13.7440   -8.8781 H   0  0  0  0  0  0  0  0  0  0  0  0
  1  2  2  0  0  0  0
  1  4  1  0  0  0  0
  1 11  1  0  0  0  0
  2  6  1  0  0  0  0
  3  4  2  0  0  0  0
  3  5  1  0  0  0  0
  5  6  2  0  0  0  0
  5  9  1  0  0  0  0
  6  7  1  0  0  0  0
  7  8  1  0  0  0  0
  7 10  1  0  0  0  0
  8  9  2  0  0  0  0
 10 12  1  0  0  0  0
 11 24  2  0  0  0  0
 11 25  2  0  0  0  0
 11 26  1  0  0  0  0
 12 13  2  0  0  0  0
 12 17  1  0  0  0  0
 13 14  1  0  0  0  0
 14 15  2  0  0  0  0
 15 16  1  0  0  0  0
 15 18  1  0  0  0  0
 16 17  2  0  0  0  0
 18 19  2  0  0  0  0
 18 22  1  0  0  0  0
 19 20  1  0  0  0  0
 20 21  1  0  0  0  0
 20 23  1  0  0  0  0
 21 22  2  0  0  0  0
 26 27  1  0  0  0  0
 27 28  1  0  0  0  0
 27 29  1  0  0  0  0
 28 29  1  0  0  0  0
  2 30  1  0  0  0  0
  3 31  1  0  0  0  0
  4 32  1  0  0  0  0
  7 33  1  0  0  0  0
 10 34  1  0  0  0  0
 10 35  1  0  0  0  0
 13 36  1  0  0  0  0
 14 37  1  0  0  0  0
 16 38  1  0  0  0  0
 17 39  1  0  0  0  0
 19 40  1  0  0  0  0
 22 41  1  0  0  0  0
 23 42  1  0  0  0  0
 23 43  1  0  0  0  0
 23 44  1  0  0  0  0
 26 45  1  0  0  0  0
 27 46  1  0  0  0  0
 28 47  1  0  0  0  0
 28 48  1  0  0  0  0
 29 49  1  0  0  0  0
 29 50  1  0  0  0  0
M  END
> <Name>
29

> <IC50[uM]>
0.18

$$$$
29
  -OEChem-05192314333D
 Structure written by MMmdl.
 50 54  0     0  0  0  0  0  0999 V2000
   -6.3727   12.3493  -11.9877 C   0  0  0  0  0  0  0  0  0  0  0  0
   -6.5190   11.8167  -10.7261 C   0  0  0  0  0  0  0  0  0  0  0  0
   -7.6919   10.5755  -13.0077 C   0  0  0  0  0  0  0  0  0  0  0  0
   -6.9476   11.7646  -13.1157 C   0  0  0  0  0  0  0  0  0  0  0  0
   -7.8131   10.0080  -11.7494 C   0  0  0  0  0  0  0  0  0  0  0  0
   -7.2399   10.6155  -10.5946 C   0  0  0  0  0  0  0  0  0  0  0  0
   -7.6088    9.7430   -9.5107 C   0  0  0  0  0  0  0  0  0  0  0  0
   -8.2764    8.7286   -9.9647 N   0  0  0  0  0  0  0  0  0  0  0  0
   -8.4188    8.8758  -11.2882 N   0  0  0  0  0  0  0  0  0  0  0  0
   -7.3326    9.8988   -8.0180 C   0  0  0  0  0  0  0  0  0  0  0  0
   -5.4060   13.8057  -12.2007 S   0  0  0  0  0  0  0  0  0  0  0  0
   -5.9763   10.4855   -7.7248 C   0  0  0  0  0  0  0  0  0  0  0  0
   -5.8692   11.7523   -7.1523 C   0  0  0  0  0  0  0  0  0  0  0  0
   -4.6115   12.3005   -6.8946 C   0  0  0  0  0  0  0  0  0  0  0  0
   -3.4415   11.5837   -7.2014 C   0  0  0  0  0  0  0  0  0  0  0  0
   -3.5677   10.3182   -7.7642 C   0  0  0  0  0  0  0  0  0  0  0  0
   -4.8209    9.7630   -8.0308 C   0  0  0  0  0  0  0  0  0  0  0  0
   -2.1027   12.1584   -6.9334 C   0  0  0  0  0  0  0  0  0  0  0  0
   -1.7604   13.4248   -6.4226 C   0  0  0  0  0  0  0  0  0  0  0  0
   -0.4260   13.4533   -6.3925 N   0  0  0  0  0  0  0  0  0  0  0  0
    0.1594   12.3444   -6.7934 N   0  0  0  0  0  0  0  0  0  0  0  0
   -0.8210   11.5507   -7.1379 C   0  0  0  0  0  0  0  0  0  0  0  0
    0.4194   14.5816   -5.9703 C   0  0  0  0  0  0  0  0  0  0  0  0
   -4.4605   13.4170  -13.2280 O   0  0  0  0  0  0  0  0  0  0  0  0
   -6.3362   14.9020  -12.4291 O   0  0  0  0  0  0  0  0  0  0  0  0
   -4.5495   14.1196  -10.6911 N   0  0  0  0  0  0  0  0  0  0  0  0
   -3.3000   13.4420  -10.3686 C   0  0  0  0  0  0  0  0  0  0  0  0
   -2.0717   13.9935  -11.0748 C   0  0  0  0  0  0  0  0  0  0  0  0
   -2.2627   14.2439   -9.6094 C   0  0  0  0  0  0  0  0  0  0  0  0
   -6.0929   12.3066   -9.8631 H   0  0  0  0  0  0  0  0  0  0  0  0
   -8.1517   10.1219  -13.8733 H   0  0  0  0  0  0  0  0  0  0  0  0
   -6.8202   12.2294  -14.0822 H   0  0  0  0  0  0  0  0  0  0  0  0
   -7.7797    7.8828   -9.7703 H   0  0  0  0  0  0  0  0  0  0  0  0
   -9.3942    8.9218  -11.5039 H   0  0  0  0  0  0  0  0  0  0  0  0
   -8.0377    9.6171   -7.2499 H   0  0  0  0  0  0  0  0  0  0  0  0
   -6.7609   12.3104   -6.9078 H   0  0  0  0  0  0  0  0  0  0  0  0
   -4.5365   13.2843   -6.4555 H   0  0  0  0  0  0  0  0  0  0  0  0
   -2.6780    9.7532   -7.9999 H   0  0  0  0  0  0  0  0  0  0  0  0
   -4.8963    8.7799   -8.4714 H   0  0  0  0  0  0  0  0  0  0  0  0
   -2.4366   14.2100   -6.1184 H   0  0  0  0  0  0  0  0  0  0  0  0
   -0.6813   10.5543   -7.5304 H   0  0  0  0  0  0  0  0  0  0  0  0
    1.4790   14.3012   -6.0627 H   0  0  0  0  0  0  0  0  0  0  0  0
    0.2138   15.4529   -6.6095 H   0  0  0  0  0  0  0  0  0  0  0  0
    0.1971   14.8344   -4.9231 H   0  0  0  0  0  0  0  0  0  0  0  0
   -4.3503   15.0995  -10.6784 H   0  0  0  0  0  0  0  0  0  0  0  0
   -3.3270   12.3575  -10.1868 H   0  0  0  0  0  0  0  0  0  0  0  0
   -1.2811   13.3093  -11.4167 H   0  0  0  0  0  0  0  0  0  0  0  0
   -2.1756   14.8213  -11.7917 H   0  0  0  0  0  0  0  0  0  0  0  0
   -2.5050   15.2560   -9.2530 H   0  0  0  0  0  0  0  0  0  0  0  0
   -1.6106   13.7440   -8.8781 H   0  0  0  0  0  0  0  0  0  0  0  0
  1  2  2  0  0  0  0
  1  4  1  0  0  0  0
  1 11  1  0  0  0  0
  2  6  1  0  0  0  0
  3  4  2  0  0  0  0
  3  5  1  0  0  0  0
  5  6  2  0  0  0  0
  5  9  1  0  0  0  0
  6  7  1  0  0  0  0
  7  8  1  0  0  0  0
  7 10  2  3  0  0  0
  8  9  1  0  0  0  0
 10 12  1  0  0  0  0
 11 24  2  0  0  0  0
 11 25  2  0  0  0  0
 11 26  1  0  0  0  0
 12 13  2  0  0  0  0
 12 17  1  0  0  0  0
 13 14  1  0  0  0  0
 14 15  2  0  0  0  0
 15 16  1  0  0  0  0
 15 18  1  0  0  0  0
 16 17  2  0  0  0  0
 18 19  2  0  0  0  0
 18 22  1  0  0  0  0
 19 20  1  0  0  0  0
 20 21  1  0  0  0  0
 20 23  1  0  0  0  0
 21 22  2  0  0  0  0
 26 27  1  0  0  0  0
 27 28  1  0  0  0  0
 27 29  1  0  0  0  0
 28 29  1  0  0  0  0
  2 30  1  0  0  0  0
  3 31  1  0  0  0  0
  4 32  1  0  0  0  0
  8 33  1  0  0  0  0
  9 34  1  0  0  0  0
 10 35  1  0  0  0  0
 13 36  1  0  0  0  0
 14 37  1  0  0  0  0
 16 38  1  0  0  0  0
 17 39  1  0  0  0  0
 19 40  1  0  0  0  0
 22 41  1  0  0  0  0
 23 42  1  0  0  0  0
 23 43  1  0  0  0  0
 23 44  1  0  0  0  0
 26 45  1  0  0  0  0
 27 46  1  0  0  0  0
 28 47  1  0  0  0  0
 28 48  1  0  0  0  0
 29 49  1  0  0  0  0
 29 50  1  0  0  0  0
M  END
> <Name>
29

> <IC50[uM]>
0.18

$$$$
29
  -OEChem-05192314333D
 Structure written by MMmdl.
 50 54  0     1  0  0  0  0  0999 V2000
   -6.3727   12.3493  -11.9877 C   0  0  3  0  0  0  0  0  0  0  0  0
   -6.5190   11.8167  -10.7261 C   0  0  0  0  0  0  0  0  0  0  0  0
   -7.6919   10.5755  -13.0077 C   0  0  0  0  0  0  0  0  0  0  0  0
   -6.9476   11.7646  -13.1157 C   0  0  0  0  0  0  0  0  0  0  0  0
   -7.8131   10.0080  -11.7494 C   0  0  0  0  0  0  0  0  0  0  0  0
   -7.2399   10.6155  -10.5946 C   0  0  0  0  0  0  0  0  0  0  0  0
   -7.6088    9.7430   -9.5107 C   0  0  0  0  0  0  0  0  0  0  0  0
   -8.2764    8.7286   -9.9647 N   0  0  0  0  0  0  0  0  0  0  0  0
   -8.4188    8.8758  -11.2882 N   0  0  0  0  0  0  0  0  0  0  0  0
   -7.3326    9.8988   -8.0180 C   0  0  0  0  0  0  0  0  0  0  0  0
   -5.4060   13.8057  -12.2007 S   0  0  0  0  0  0  0  0  0  0  0  0
   -5.9763   10.4855   -7.7248 C   0  0  0  0  0  0  0  0  0  0  0  0
   -5.8692   11.7523   -7.1523 C   0  0  0  0  0  0  0  0  0  0  0  0
   -4.6115   12.3005   -6.8946 C   0  0  0  0  0  0  0  0  0  0  0  0
   -3.4415   11.5837   -7.2014 C   0  0  0  0  0  0  0  0  0  0  0  0
   -3.5677   10.3182   -7.7642 C   0  0  0  0  0  0  0  0  0  0  0  0
   -4.8209    9.7630   -8.0308 C   0  0  0  0  0  0  0  0  0  0  0  0
   -2.1027   12.1584   -6.9334 C   0  0  0  0  0  0  0  0  0  0  0  0
   -1.7604   13.4248   -6.4226 C   0  0  0  0  0  0  0  0  0  0  0  0
   -0.4260   13.4533   -6.3925 N   0  0  0  0  0  0  0  0  0  0  0  0
    0.1594   12.3444   -6.7934 N   0  0  0  0  0  0  0  0  0  0  0  0
   -0.8210   11.5507   -7.1379 C   0  0  0  0  0  0  0  0  0  0  0  0
    0.4194   14.5816   -5.9703 C   0  0  0  0  0  0  0  0  0  0  0  0
   -4.4605   13.4170  -13.2280 O   0  0  0  0  0  0  0  0  0  0  0  0
   -6.3362   14.9020  -12.4291 O   0  0  0  0  0  0  0  0  0  0  0  0
   -4.5495   14.1196  -10.6911 N   0  0  0  0  0  0  0  0  0  0  0  0
   -3.3000   13.4420  -10.3686 C   0  0  0  0  0  0  0  0  0  0  0  0
   -2.0717   13.9935  -11.0748 C   0  0  0  0  0  0  0  0  0  0  0  0
   -2.2627   14.2439   -9.6094 C   0  0  0  0  0  0  0  0  0  0  0  0
   -7.2734   12.9632  -11.8395 H   0  0  0  0  0  0  0  0  0  0  0  0
   -6.0929   12.3066   -9.8631 H   0  0  0  0  0  0  0  0  0  0  0  0
   -8.1517   10.1219  -13.8733 H   0  0  0  0  0  0  0  0  0  0  0  0
   -6.8202   12.2294  -14.0822 H   0  0  0  0  0  0  0  0  0  0  0  0
   -8.6255    7.9663   -9.4196 H   0  0  0  0  0  0  0  0  0  0  0  0
   -8.0377    9.6171   -7.2499 H   0  0  0  0  0  0  0  0  0  0  0  0
   -6.7609   12.3104   -6.9078 H   0  0  0  0  0  0  0  0  0  0  0  0
   -4.5365   13.2843   -6.4555 H   0  0  0  0  0  0  0  0  0  0  0  0
   -2.6780    9.7532   -7.9999 H   0  0  0  0  0  0  0  0  0  0  0  0
   -4.8963    8.7799   -8.4714 H   0  0  0  0  0  0  0  0  0  0  0  0
   -2.4366   14.2100   -6.1184 H   0  0  0  0  0  0  0  0  0  0  0  0
   -0.6813   10.5543   -7.5304 H   0  0  0  0  0  0  0  0  0  0  0  0
    1.4790   14.3012   -6.0627 H   0  0  0  0  0  0  0  0  0  0  0  0
    0.2138   15.4529   -6.6095 H   0  0  0  0  0  0  0  0  0  0  0  0
    0.1971   14.8344   -4.9231 H   0  0  0  0  0  0  0  0  0  0  0  0
   -4.3503   15.0995  -10.6784 H   0  0  0  0  0  0  0  0  0  0  0  0
   -3.3270   12.3575  -10.1868 H   0  0  0  0  0  0  0  0  0  0  0  0
   -1.2811   13.3093  -11.4167 H   0  0  0  0  0  0  0  0  0  0  0  0
   -2.1756   14.8213  -11.7917 H   0  0  0  0  0  0  0  0  0  0  0  0
   -2.5050   15.2560   -9.2530 H   0  0  0  0  0  0  0  0  0  0  0  0
   -1.6106   13.7440   -8.8781 H   0  0  0  0  0  0  0  0  0  0  0  0
  1  2  1  0  0  0  0
  1  4  1  0  0  0  0
  1 11  1  0  0  0  0
  2  6  2  0  0  0  0
  3  4  2  0  0  0  0
  3  5  1  0  0  0  0
  5  6  1  0  0  0  0
  5  9  2  0  0  0  0
  6  7  1  0  0  0  0
  7  8  1  0  0  0  0
  7 10  2  3  0  0  0
  8  9  1  0  0  0  0
 10 12  1  0  0  0  0
 11 24  2  0  0  0  0
 11 25  2  0  0  0  0
 11 26  1  0  0  0  0
 12 13  2  0  0  0  0
 12 17  1  0  0  0  0
 13 14  1  0  0  0  0
 14 15  2  0  0  0  0
 15 16  1  0  0  0  0
 15 18  1  0  0  0  0
 16 17  2  0  0  0  0
 18 19  2  0  0  0  0
 18 22  1  0  0  0  0
 19 20  1  0  0  0  0
 20 21  1  0  0  0  0
 20 23  1  0  0  0  0
 21 22  2  0  0  0  0
 26 27  1  0  0  0  0
 27 28  1  0  0  0  0
 27 29  1  0  0  0  0
 28 29  1  0  0  0  0
  1 30  1  0  0  0  0
  2 31  1  0  0  0  0
  3 32  1  0  0  0  0
  4 33  1  0  0  0  0
  8 34  1  0  0  0  0
 10 35  1  0  0  0  0
 13 36  1  0  0  0  0
 14 37  1  0  0  0  0
 16 38  1  0  0  0  0
 17 39  1  0  0  0  0
 19 40  1  0  0  0  0
 22 41  1  0  0  0  0
 23 42  1  0  0  0  0
 23 43  1  0  0  0  0
 23 44  1  0  0  0  0
 26 45  1  0  0  0  0
 27 46  1  0  0  0  0
 28 47  1  0  0  0  0
 28 48  1  0  0  0  0
 29 49  1  0  0  0  0
 29 50  1  0  0  0  0
M  END
> <Name>
29

> <IC50[uM]>
0.18

$$$$
29
  -OEChem-05192314333D
 Structure written by MMmdl.
 50 54  0     0  0  0  0  0  0999 V2000
   -6.3727   12.3493  -11.9877 C   0  0  0  0  0  0  0  0  0  0  0  0
   -6.5190   11.8167  -10.7261 C   0  0  0  0  0  0  0  0  0  0  0  0
   -7.6919   10.5755  -13.0077 C   0  0  0  0  0  0  0  0  0  0  0  0
   -6.9476   11.7646  -13.1157 C   0  0  0  0  0  0  0  0  0  0  0  0
   -7.8131   10.0080  -11.7494 C   0  0  0  0  0  0  0  0  0  0  0  0
   -7.2399   10.6155  -10.5946 C   0  0  0  0  0  0  0  0  0  0  0  0
   -7.6088    9.7430   -9.5107 C   0  0  0  0  0  0  0  0  0  0  0  0
   -8.2764    8.7286   -9.9647 N   0  0  0  0  0  0  0  0  0  0  0  0
   -8.4188    8.8758  -11.2882 N   0  0  0  0  0  0  0  0  0  0  0  0
   -7.3326    9.8988   -8.0180 C   0  0  0  0  0  0  0  0  0  0  0  0
   -5.4060   13.8057  -12.2007 S   0  0  0  0  0  0  0  0  0  0  0  0
   -5.9763   10.4855   -7.7248 C   0  0  0  0  0  0  0  0  0  0  0  0
   -5.8692   11.7523   -7.1523 C   0  0  0  0  0  0  0  0  0  0  0  0
   -4.6115   12.3005   -6.8946 C   0  0  0  0  0  0  0  0  0  0  0  0
   -3.4415   11.5837   -7.2014 C   0  0  0  0  0  0  0  0  0  0  0  0
   -3.5677   10.3182   -7.7642 C   0  0  0  0  0  0  0  0  0  0  0  0
   -4.8209    9.7630   -8.0308 C   0  0  0  0  0  0  0  0  0  0  0  0
   -2.1027   12.1584   -6.9334 C   0  0  0  0  0  0  0  0  0  0  0  0
   -1.7604   13.4248   -6.4226 C   0  0  0  0  0  0  0  0  0  0  0  0
   -0.4260   13.4533   -6.3925 N   0  0  0  0  0  0  0  0  0  0  0  0
    0.1594   12.3444   -6.7934 N   0  0  0  0  0  0  0  0  0  0  0  0
   -0.8210   11.5507   -7.1379 C   0  0  0  0  0  0  0  0  0  0  0  0
    0.4194   14.5816   -5.9703 C   0  0  0  0  0  0  0  0  0  0  0  0
   -4.4605   13.4170  -13.2280 O   0  0  0  0  0  0  0  0  0  0  0  0
   -6.3362   14.9020  -12.4291 O   0  0  0  0  0  0  0  0  0  0  0  0
   -4.5495   14.1196  -10.6911 N   0  0  0  0  0  0  0  0  0  0  0  0
   -3.3000   13.4420  -10.3686 C   0  0  0  0  0  0  0  0  0  0  0  0
   -2.0717   13.9935  -11.0748 C   0  0  0  0  0  0  0  0  0  0  0  0
   -2.2627   14.2439   -9.6094 C   0  0  0  0  0  0  0  0  0  0  0  0
   -6.0929   12.3066   -9.8631 H   0  0  0  0  0  0  0  0  0  0  0  0
   -8.7077   10.7885  -13.3722 H   0  0  0  0  0  0  0  0  0  0  0  0
   -7.2168    9.8291  -13.6613 H   0  0  0  0  0  0  0  0  0  0  0  0
   -6.8202   12.2294  -14.0822 H   0  0  0  0  0  0  0  0  0  0  0  0
   -8.6255    7.9663   -9.4196 H   0  0  0  0  0  0  0  0  0  0  0  0
   -8.0377    9.6171   -7.2499 H   0  0  0  0  0  0  0  0  0  0  0  0
   -6.7609   12.3104   -6.9078 H   0  0  0  0  0  0  0  0  0  0  0  0
   -4.5365   13.2843   -6.4555 H   0  0  0  0  0  0  0  0  0  0  0  0
   -2.6780    9.7532   -7.9999 H   0  0  0  0  0  0  0  0  0  0  0  0
   -4.8963    8.7799   -8.4714 H   0  0  0  0  0  0  0  0  0  0  0  0
   -2.4366   14.2100   -6.1184 H   0  0  0  0  0  0  0  0  0  0  0  0
   -0.6813   10.5543   -7.5304 H   0  0  0  0  0  0  0  0  0  0  0  0
    1.4790   14.3012   -6.0627 H   0  0  0  0  0  0  0  0  0  0  0  0
    0.2138   15.4529   -6.6095 H   0  0  0  0  0  0  0  0  0  0  0  0
    0.1971   14.8344   -4.9231 H   0  0  0  0  0  0  0  0  0  0  0  0
   -4.3503   15.0995  -10.6784 H   0  0  0  0  0  0  0  0  0  0  0  0
   -3.3270   12.3575  -10.1868 H   0  0  0  0  0  0  0  0  0  0  0  0
   -1.2811   13.3093  -11.4167 H   0  0  0  0  0  0  0  0  0  0  0  0
   -2.1756   14.8213  -11.7917 H   0  0  0  0  0  0  0  0  0  0  0  0
   -2.5050   15.2560   -9.2530 H   0  0  0  0  0  0  0  0  0  0  0  0
   -1.6106   13.7440   -8.8781 H   0  0  0  0  0  0  0  0  0  0  0  0
  1  2  1  0  0  0  0
  1  4  2  0  0  0  0
  1 11  1  0  0  0  0
  2  6  2  0  0  0  0
  3  4  1  0  0  0  0
  3  5  1  0  0  0  0
  5  6  1  0  0  0  0
  5  9  2  0  0  0  0
  6  7  1  0  0  0  0
  7  8  1  0  0  0  0
  7 10  2  3  0  0  0
  8  9  1  0  0  0  0
 10 12  1  0  0  0  0
 11 24  2  0  0  0  0
 11 25  2  0  0  0  0
 11 26  1  0  0  0  0
 12 13  2  0  0  0  0
 12 17  1  0  0  0  0
 13 14  1  0  0  0  0
 14 15  2  0  0  0  0
 15 16  1  0  0  0  0
 15 18  1  0  0  0  0
 16 17  2  0  0  0  0
 18 19  2  0  0  0  0
 18 22  1  0  0  0  0
 19 20  1  0  0  0  0
 20 21  1  0  0  0  0
 20 23  1  0  0  0  0
 21 22  2  0  0  0  0
 26 27  1  0  0  0  0
 27 28  1  0  0  0  0
 27 29  1  0  0  0  0
 28 29  1  0  0  0  0
  2 30  1  0  0  0  0
  3 31  1  0  0  0  0
  3 32  1  0  0  0  0
  4 33  1  0  0  0  0
  8 34  1  0  0  0  0
 10 35  1  0  0  0  0
 13 36  1  0  0  0  0
 14 37  1  0  0  0  0
 16 38  1  0  0  0  0
 17 39  1  0  0  0  0
 19 40  1  0  0  0  0
 22 41  1  0  0  0  0
 23 42  1  0  0  0  0
 23 43  1  0  0  0  0
 23 44  1  0  0  0  0
 26 45  1  0  0  0  0
 27 46  1  0  0  0  0
 28 47  1  0  0  0  0
 28 48  1  0  0  0  0
 29 49  1  0  0  0  0
 29 50  1  0  0  0  0
M  END
> <Name>
29

> <IC50[uM]>
0.18

$$$$
29
  -OEChem-05192314333D
 Structure written by MMmdl.
 50 54  0     1  0  0  0  0  0999 V2000
   -6.3727   12.3493  -11.9877 C   0  0  0  0  0  0  0  0  0  0  0  0
   -6.5190   11.8167  -10.7261 C   0  0  0  0  0  0  0  0  0  0  0  0
   -7.6919   10.5755  -13.0077 C   0  0  0  0  0  0  0  0  0  0  0  0
   -6.9476   11.7646  -13.1157 C   0  0  0  0  0  0  0  0  0  0  0  0
   -7.8131   10.0080  -11.7494 C   0  0  0  0  0  0  0  0  0  0  0  0
   -7.2399   10.6155  -10.5946 C   0  0  0  0  0  0  0  0  0  0  0  0
   -7.6088    9.7430   -9.5107 C   0  0  0  0  0  0  0  0  0  0  0  0
   -8.2764    8.7286   -9.9647 N   0  0  0  0  0  0  0  0  0  0  0  0
   -8.4188    8.8758  -11.2882 N   0  0  0  0  0  0  0  0  0  0  0  0
   -7.3326    9.8988   -8.0180 C   0  0  0  0  0  0  0  0  0  0  0  0
   -5.4060   13.8057  -12.2007 S   0  0  0  0  0  0  0  0  0  0  0  0
   -5.9763   10.4855   -7.7248 C   0  0  0  0  0  0  0  0  0  0  0  0
   -5.8692   11.7523   -7.1523 C   0  0  0  0  0  0  0  0  0  0  0  0
   -4.6115   12.3005   -6.8946 C   0  0  0  0  0  0  0  0  0  0  0  0
   -3.4415   11.5837   -7.2014 C   0  0  0  0  0  0  0  0  0  0  0  0
   -3.5677   10.3182   -7.7642 C   0  0  0  0  0  0  0  0  0  0  0  0
   -4.8209    9.7630   -8.0308 C   0  0  0  0  0  0  0  0  0  0  0  0
   -2.1027   12.1584   -6.9334 C   0  0  0  0  0  0  0  0  0  0  0  0
   -1.7604   13.4248   -6.4226 C   0  0  0  0  0  0  0  0  0  0  0  0
   -0.4260   13.4533   -6.3925 N   0  0  3  0  0  0  0  0  0  0  0  0
    0.1594   12.3444   -6.7934 N   0  0  0  0  0  0  0  0  0  0  0  0
   -0.8210   11.5507   -7.1379 C   0  0  0  0  0  0  0  0  0  0  0  0
    0.4194   14.5816   -5.9703 C   0  0  0  0  0  0  0  0  0  0  0  0
   -4.4605   13.4170  -13.2280 O   0  0  0  0  0  0  0  0  0  0  0  0
   -6.3362   14.9020  -12.4291 O   0  0  0  0  0  0  0  0  0  0  0  0
   -4.5495   14.1196  -10.6911 N   0  0  0  0  0  0  0  0  0  0  0  0
   -3.3000   13.4420  -10.3686 C   0  0  0  0  0  0  0  0  0  0  0  0
   -2.0717   13.9935  -11.0748 C   0  0  0  0  0  0  0  0  0  0  0  0
   -2.2627   14.2439   -9.6094 C   0  0  0  0  0  0  0  0  0  0  0  0
   -6.0929   12.3066   -9.8631 H   0  0  0  0  0  0  0  0  0  0  0  0
   -8.1517   10.1219  -13.8733 H   0  0  0  0  0  0  0  0  0  0  0  0
   -6.8202   12.2294  -14.0822 H   0  0  0  0  0  0  0  0  0  0  0  0
   -8.6255    7.9663   -9.4196 H   0  0  0  0  0  0  0  0  0  0  0  0
   -8.0377    9.6171   -7.2499 H   0  0  0  0  0  0  0  0  0  0  0  0
   -6.7609   12.3104   -6.9078 H   0  0  0  0  0  0  0  0  0  0  0  0
   -4.5365   13.2843   -6.4555 H   0  0  0  0  0  0  0  0  0  0  0  0
   -2.6780    9.7532   -7.9999 H   0  0  0  0  0  0  0  0  0  0  0  0
   -4.8963    8.7799   -8.4714 H   0  0  0  0  0  0  0  0  0  0  0  0
   -2.1464   14.2197   -7.0777 H   0  0  0  0  0  0  0  0  0  0  0  0
   -2.1698   13.5533   -5.4097 H   0  0  0  0  0  0  0  0  0  0  0  0
   -0.6813   10.5543   -7.5304 H   0  0  0  0  0  0  0  0  0  0  0  0
    1.4790   14.3012   -6.0627 H   0  0  0  0  0  0  0  0  0  0  0  0
    0.2138   15.4529   -6.6095 H   0  0  0  0  0  0  0  0  0  0  0  0
    0.1971   14.8344   -4.9231 H   0  0  0  0  0  0  0  0  0  0  0  0
   -4.3503   15.0995  -10.6784 H   0  0  0  0  0  0  0  0  0  0  0  0
   -3.3270   12.3575  -10.1868 H   0  0  0  0  0  0  0  0  0  0  0  0
   -1.2811   13.3093  -11.4167 H   0  0  0  0  0  0  0  0  0  0  0  0
   -2.1756   14.8213  -11.7917 H   0  0  0  0  0  0  0  0  0  0  0  0
   -2.5050   15.2560   -9.2530 H   0  0  0  0  0  0  0  0  0  0  0  0
   -1.6106   13.7440   -8.8781 H   0  0  0  0  0  0  0  0  0  0  0  0
  1  2  2  0  0  0  0
  1  4  1  0  0  0  0
  1 11  1  0  0  0  0
  2  6  1  0  0  0  0
  3  4  2  0  0  0  0
  3  5  1  0  0  0  0
  5  6  1  0  0  0  0
  5  9  2  0  0  0  0
  6  7  2  0  0  0  0
  7  8  1  0  0  0  0
  7 10  1  0  0  0  0
  8  9  1  0  0  0  0
 10 12  2  0  0  0  0
 11 24  2  0  0  0  0
 11 25  2  0  0  0  0
 11 26  1  0  0  0  0
 12 13  1  0  0  0  0
 12 17  1  0  0  0  0
 13 14  2  0  0  0  0
 14 15  1  0  0  0  0
 15 16  1  0  0  0  0
 15 18  2  0  0  0  0
 16 17  2  0  0  0  0
 18 19  1  0  0  0  0
 18 22  1  0  0  0  0
 19 20  1  0  0  0  0
 20 21  1  0  0  0  0
 20 23  1  0  0  0  0
 21 22  2  0  0  0  0
 26 27  1  0  0  0  0
 27 28  1  0  0  0  0
 27 29  1  0  0  0  0
 28 29  1  0  0  0  0
  2 30  1  0  0  0  0
  3 31  1  0  0  0  0
  4 32  1  0  0  0  0
  8 33  1  0  0  0  0
 10 34  1  0  0  0  0
 13 35  1  0  0  0  0
 14 36  1  0  0  0  0
 16 37  1  0  0  0  0
 17 38  1  0  0  0  0
 19 39  1  0  0  0  0
 19 40  1  0  0  0  0
 22 41  1  0  0  0  0
 23 42  1  0  0  0  0
 23 43  1  0  0  0  0
 23 44  1  0  0  0  0
 26 45  1  0  0  0  0
 27 46  1  0  0  0  0
 28 47  1  0  0  0  0
 28 48  1  0  0  0  0
 29 49  1  0  0  0  0
 29 50  1  0  0  0  0
M  END
> <Name>
29

> <IC50[uM]>
0.18

$$$$
29
  -OEChem-05192314333D
 Structure written by MMmdl.
 50 54  0     1  0  0  0  0  0999 V2000
   -6.3727   12.3493  -11.9877 C   0  0  0  0  0  0  0  0  0  0  0  0
   -6.5190   11.8167  -10.7261 C   0  0  0  0  0  0  0  0  0  0  0  0
   -7.6919   10.5755  -13.0077 C   0  0  0  0  0  0  0  0  0  0  0  0
   -6.9476   11.7646  -13.1157 C   0  0  0  0  0  0  0  0  0  0  0  0
   -7.8131   10.0080  -11.7494 C   0  0  0  0  0  0  0  0  0  0  0  0
   -7.2399   10.6155  -10.5946 C   0  0  0  0  0  0  0  0  0  0  0  0
   -7.6088    9.7430   -9.5107 C   0  0  0  0  0  0  0  0  0  0  0  0
   -8.2764    8.7286   -9.9647 N   0  0  0  0  0  0  0  0  0  0  0  0
   -8.4188    8.8758  -11.2882 N   0  0  0  0  0  0  0  0  0  0  0  0
   -7.3326    9.8988   -8.0180 C   0  0  0  0  0  0  0  0  0  0  0  0
   -5.4060   13.8057  -12.2007 S   0  0  0  0  0  0  0  0  0  0  0  0
   -5.9763   10.4855   -7.7248 C   0  0  0  0  0  0  0  0  0  0  0  0
   -5.8692   11.7523   -7.1523 C   0  0  0  0  0  0  0  0  0  0  0  0
   -4.6115   12.3005   -6.8946 C   0  0  0  0  0  0  0  0  0  0  0  0
   -3.4415   11.5837   -7.2014 C   0  0  0  0  0  0  0  0  0  0  0  0
   -3.5677   10.3182   -7.7642 C   0  0  0  0  0  0  0  0  0  0  0  0
   -4.8209    9.7630   -8.0308 C   0  0  0  0  0  0  0  0  0  0  0  0
   -2.1027   12.1584   -6.9334 C   0  0  0  0  0  0  0  0  0  0  0  0
   -1.7604   13.4248   -6.4226 C   0  0  0  0  0  0  0  0  0  0  0  0
   -0.4260   13.4533   -6.3925 N   0  0  3  0  0  0  0  0  0  0  0  0
    0.1594   12.3444   -6.7934 N   0  0  0  0  0  0  0  0  0  0  0  0
   -0.8210   11.5507   -7.1379 C   0  0  0  0  0  0  0  0  0  0  0  0
    0.4194   14.5816   -5.9703 C   0  0  0  0  0  0  0  0  0  0  0  0
   -4.4605   13.4170  -13.2280 O   0  0  0  0  0  0  0  0  0  0  0  0
   -6.3362   14.9020  -12.4291 O   0  0  0  0  0  0  0  0  0  0  0  0
   -4.5495   14.1196  -10.6911 N   0  0  0  0  0  0  0  0  0  0  0  0
   -3.3000   13.4420  -10.3686 C   0  0  0  0  0  0  0  0  0  0  0  0
   -2.0717   13.9935  -11.0748 C   0  0  0  0  0  0  0  0  0  0  0  0
   -2.2627   14.2439   -9.6094 C   0  0  0  0  0  0  0  0  0  0  0  0
   -6.0929   12.3066   -9.8631 H   0  0  0  0  0  0  0  0  0  0  0  0
   -8.1517   10.1219  -13.8733 H   0  0  0  0  0  0  0  0  0  0  0  0
   -6.8202   12.2294  -14.0822 H   0  0  0  0  0  0  0  0  0  0  0  0
   -8.9122    8.2303  -11.8712 H   0  0  0  0  0  0  0  0  0  0  0  0
   -8.0377    9.6171   -7.2499 H   0  0  0  0  0  0  0  0  0  0  0  0
   -6.7609   12.3104   -6.9078 H   0  0  0  0  0  0  0  0  0  0  0  0
   -4.5365   13.2843   -6.4555 H   0  0  0  0  0  0  0  0  0  0  0  0
   -2.6780    9.7532   -7.9999 H   0  0  0  0  0  0  0  0  0  0  0  0
   -4.8963    8.7799   -8.4714 H   0  0  0  0  0  0  0  0  0  0  0  0
   -2.1464   14.2197   -7.0777 H   0  0  0  0  0  0  0  0  0  0  0  0
   -2.1698   13.5533   -5.4097 H   0  0  0  0  0  0  0  0  0  0  0  0
   -0.6813   10.5543   -7.5304 H   0  0  0  0  0  0  0  0  0  0  0  0
    1.4790   14.3012   -6.0627 H   0  0  0  0  0  0  0  0  0  0  0  0
    0.2138   15.4529   -6.6095 H   0  0  0  0  0  0  0  0  0  0  0  0
    0.1971   14.8344   -4.9231 H   0  0  0  0  0  0  0  0  0  0  0  0
   -4.3503   15.0995  -10.6784 H   0  0  0  0  0  0  0  0  0  0  0  0
   -3.3270   12.3575  -10.1868 H   0  0  0  0  0  0  0  0  0  0  0  0
   -1.2811   13.3093  -11.4167 H   0  0  0  0  0  0  0  0  0  0  0  0
   -2.1756   14.8213  -11.7917 H   0  0  0  0  0  0  0  0  0  0  0  0
   -2.5050   15.2560   -9.2530 H   0  0  0  0  0  0  0  0  0  0  0  0
   -1.6106   13.7440   -8.8781 H   0  0  0  0  0  0  0  0  0  0  0  0
  1  2  2  0  0  0  0
  1  4  1  0  0  0  0
  1 11  1  0  0  0  0
  2  6  1  0  0  0  0
  3  4  2  0  0  0  0
  3  5  1  0  0  0  0
  5  6  2  0  0  0  0
  5  9  1  0  0  0  0
  6  7  1  0  0  0  0
  7  8  2  0  0  0  0
  7 10  1  0  0  0  0
  8  9  1  0  0  0  0
 10 12  2  0  0  0  0
 11 24  2  0  0  0  0
 11 25  2  0  0  0  0
 11 26  1  0  0  0  0
 12 13  1  0  0  0  0
 12 17  1  0  0  0  0
 13 14  2  0  0  0  0
 14 15  1  0  0  0  0
 15 16  1  0  0  0  0
 15 18  2  0  0  0  0
 16 17  2  0  0  0  0
 18 19  1  0  0  0  0
 18 22  1  0  0  0  0
 19 20  1  0  0  0  0
 20 21  1  0  0  0  0
 20 23  1  0  0  0  0
 21 22  2  0  0  0  0
 26 27  1  0  0  0  0
 27 28  1  0  0  0  0
 27 29  1  0  0  0  0
 28 29  1  0  0  0  0
  2 30  1  0  0  0  0
  3 31  1  0  0  0  0
  4 32  1  0  0  0  0
  9 33  1  0  0  0  0
 10 34  1  0  0  0  0
 13 35  1  0  0  0  0
 14 36  1  0  0  0  0
 16 37  1  0  0  0  0
 17 38  1  0  0  0  0
 19 39  1  0  0  0  0
 19 40  1  0  0  0  0
 22 41  1  0  0  0  0
 23 42  1  0  0  0  0
 23 43  1  0  0  0  0
 23 44  1  0  0  0  0
 26 45  1  0  0  0  0
 27 46  1  0  0  0  0
 28 47  1  0  0  0  0
 28 48  1  0  0  0  0
 29 49  1  0  0  0  0
 29 50  1  0  0  0  0
M  END
> <Name>
29

> <IC50[uM]>
0.18

$$$$
29
  -OEChem-05192314333D
 Structure written by MMmdl.
 50 54  0     0  0  0  0  0  0999 V2000
   -6.3727   12.3493  -11.9877 C   0  0  0  0  0  0  0  0  0  0  0  0
   -6.5190   11.8167  -10.7261 C   0  0  0  0  0  0  0  0  0  0  0  0
   -7.6919   10.5755  -13.0077 C   0  0  0  0  0  0  0  0  0  0  0  0
   -6.9476   11.7646  -13.1157 C   0  0  0  0  0  0  0  0  0  0  0  0
   -7.8131   10.0080  -11.7494 C   0  0  0  0  0  0  0  0  0  0  0  0
   -7.2399   10.6155  -10.5946 C   0  0  0  0  0  0  0  0  0  0  0  0
   -7.6088    9.7430   -9.5107 C   0  0  0  0  0  0  0  0  0  0  0  0
   -8.2764    8.7286   -9.9647 N   0  0  0  0  0  0  0  0  0  0  0  0
   -8.4188    8.8758  -11.2882 N   0  0  0  0  0  0  0  0  0  0  0  0
   -7.3326    9.8988   -8.0180 C   0  0  0  0  0  0  0  0  0  0  0  0
   -5.4060   13.8057  -12.2007 S   0  0  0  0  0  0  0  0  0  0  0  0
   -5.9763   10.4855   -7.7248 C   0  0  0  0  0  0  0  0  0  0  0  0
   -5.8692   11.7523   -7.1523 C   0  0  0  0  0  0  0  0  0  0  0  0
   -4.6115   12.3005   -6.8946 C   0  0  0  0  0  0  0  0  0  0  0  0
   -3.4415   11.5837   -7.2014 C   0  0  0  0  0  0  0  0  0  0  0  0
   -3.5677   10.3182   -7.7642 C   0  0  0  0  0  0  0  0  0  0  0  0
   -4.8209    9.7630   -8.0308 C   0  0  0  0  0  0  0  0  0  0  0  0
   -2.1027   12.1584   -6.9334 C   0  0  0  0  0  0  0  0  0  0  0  0
   -1.7604   13.4248   -6.4226 C   0  0  0  0  0  0  0  0  0  0  0  0
   -0.4260   13.4533   -6.3925 N   0  0  0  0  0  0  0  0  0  0  0  0
    0.1594   12.3444   -6.7934 N   0  0  0  0  0  0  0  0  0  0  0  0
   -0.8210   11.5507   -7.1379 C   0  0  0  0  0  0  0  0  0  0  0  0
    0.4194   14.5816   -5.9703 C   0  0  0  0  0  0  0  0  0  0  0  0
   -4.4605   13.4170  -13.2280 O   0  0  0  0  0  0  0  0  0  0  0  0
   -6.3362   14.9020  -12.4291 O   0  0  0  0  0  0  0  0  0  0  0  0
   -4.5495   14.1196  -10.6911 N   0  0  0  0  0  0  0  0  0  0  0  0
   -3.3000   13.4420  -10.3686 C   0  0  0  0  0  0  0  0  0  0  0  0
   -2.0717   13.9935  -11.0748 C   0  0  0  0  0  0  0  0  0  0  0  0
   -2.2627   14.2439   -9.6094 C   0  0  0  0  0  0  0  0  0  0  0  0
   -6.0929   12.3066   -9.8631 H   0  0  0  0  0  0  0  0  0  0  0  0
   -8.1517   10.1219  -13.8733 H   0  0  0  0  0  0  0  0  0  0  0  0
   -6.8202   12.2294  -14.0822 H   0  0  0  0  0  0  0  0  0  0  0  0
   -8.6255    7.9663   -9.4196 H   0  0  0  0  0  0  0  0  0  0  0  0
   -8.0377    9.6171   -7.2499 H   0  0  0  0  0  0  0  0  0  0  0  0
   -6.7609   12.3104   -6.9078 H   0  0  0  0  0  0  0  0  0  0  0  0
   -4.5365   13.2843   -6.4555 H   0  0  0  0  0  0  0  0  0  0  0  0
   -3.4318   12.0299   -8.2068 H   0  0  0  0  0  0  0  0  0  0  0  0
   -2.6780    9.7532   -7.9999 H   0  0  0  0  0  0  0  0  0  0  0  0
   -4.8963    8.7799   -8.4714 H   0  0  0  0  0  0  0  0  0  0  0  0
   -2.4366   14.2100   -6.1184 H   0  0  0  0  0  0  0  0  0  0  0  0
   -0.6813   10.5543   -7.5304 H   0  0  0  0  0  0  0  0  0  0  0  0
    1.4790   14.3012   -6.0627 H   0  0  0  0  0  0  0  0  0  0  0  0
    0.2138   15.4529   -6.6095 H   0  0  0  0  0  0  0  0  0  0  0  0
    0.1971   14.8344   -4.9231 H   0  0  0  0  0  0  0  0  0  0  0  0
   -4.3503   15.0995  -10.6784 H   0  0  0  0  0  0  0  0  0  0  0  0
   -3.3270   12.3575  -10.1868 H   0  0  0  0  0  0  0  0  0  0  0  0
   -1.2811   13.3093  -11.4167 H   0  0  0  0  0  0  0  0  0  0  0  0
   -2.1756   14.8213  -11.7917 H   0  0  0  0  0  0  0  0  0  0  0  0
   -2.5050   15.2560   -9.2530 H   0  0  0  0  0  0  0  0  0  0  0  0
   -1.6106   13.7440   -8.8781 H   0  0  0  0  0  0  0  0  0  0  0  0
  1  2  2  0  0  0  0
  1  4  1  0  0  0  0
  1 11  1  0  0  0  0
  2  6  1  0  0  0  0
  3  4  2  0  0  0  0
  3  5  1  0  0  0  0
  5  6  1  0  0  0  0
  5  9  2  0  0  0  0
  6  7  2  0  0  0  0
  7  8  1  0  0  0  0
  7 10  1  0  0  0  0
  8  9  1  0  0  0  0
 10 12  2  0  0  0  0
 11 24  2  0  0  0  0
 11 25  2  0  0  0  0
 11 26  1  0  0  0  0
 12 13  1  0  0  0  0
 12 17  1  0  0  0  0
 13 14  2  0  0  0  0
 14 15  1  0  0  0  0
 15 16  1  0  0  0  0
 15 18  1  0  0  0  0
 16 17  2  0  0  0  0
 18 19  2  0  0  0  0
 18 22  1  0  0  0  0
 19 20  1  0  0  0  0
 20 21  1  0  0  0  0
 20 23  1  0  0  0  0
 21 22  2  0  0  0  0
 26 27  1  0  0  0  0
 27 28  1  0  0  0  0
 27 29  1  0  0  0  0
 28 29  1  0  0  0  0
  2 30  1  0  0  0  0
  3 31  1  0  0  0  0
  4 32  1  0  0  0  0
  8 33  1  0  0  0  0
 10 34  1  0  0  0  0
 13 35  1  0  0  0  0
 14 36  1  0  0  0  0
 15 37  1  0  0  0  0
 16 38  1  0  0  0  0
 17 39  1  0  0  0  0
 19 40  1  0  0  0  0
 22 41  1  0  0  0  0
 23 42  1  0  0  0  0
 23 43  1  0  0  0  0
 23 44  1  0  0  0  0
 26 45  1  0  0  0  0
 27 46  1  0  0  0  0
 28 47  1  0  0  0  0
 28 48  1  0  0  0  0
 29 49  1  0  0  0  0
 29 50  1  0  0  0  0
M  END
> <Name>
29

> <IC50[uM]>
0.18

$$$$
29
  -OEChem-05192314333D
 Structure written by MMmdl.
 50 54  0     0  0  0  0  0  0999 V2000
   -6.3727   12.3493  -11.9877 C   0  0  0  0  0  0  0  0  0  0  0  0
   -6.5190   11.8167  -10.7261 C   0  0  0  0  0  0  0  0  0  0  0  0
   -7.6919   10.5755  -13.0077 C   0  0  0  0  0  0  0  0  0  0  0  0
   -6.9476   11.7646  -13.1157 C   0  0  0  0  0  0  0  0  0  0  0  0
   -7.8131   10.0080  -11.7494 C   0  0  0  0  0  0  0  0  0  0  0  0
   -7.2399   10.6155  -10.5946 C   0  0  0  0  0  0  0  0  0  0  0  0
   -7.6088    9.7430   -9.5107 C   0  0  0  0  0  0  0  0  0  0  0  0
   -8.2764    8.7286   -9.9647 N   0  0  0  0  0  0  0  0  0  0  0  0
   -8.4188    8.8758  -11.2882 N   0  0  0  0  0  0  0  0  0  0  0  0
   -7.3326    9.8988   -8.0180 C   0  0  0  0  0  0  0  0  0  0  0  0
   -5.4060   13.8057  -12.2007 S   0  0  0  0  0  0  0  0  0  0  0  0
   -5.9763   10.4855   -7.7248 C   0  0  0  0  0  0  0  0  0  0  0  0
   -5.8692   11.7523   -7.1523 C   0  0  0  0  0  0  0  0  0  0  0  0
   -4.6115   12.3005   -6.8946 C   0  0  0  0  0  0  0  0  0  0  0  0
   -3.4415   11.5837   -7.2014 C   0  0  0  0  0  0  0  0  0  0  0  0
   -3.5677   10.3182   -7.7642 C   0  0  0  0  0  0  0  0  0  0  0  0
   -4.8209    9.7630   -8.0308 C   0  0  0  0  0  0  0  0  0  0  0  0
   -2.1027   12.1584   -6.9334 C   0  0  0  0  0  0  0  0  0  0  0  0
   -1.7604   13.4248   -6.4226 C   0  0  0  0  0  0  0  0  0  0  0  0
   -0.4260   13.4533   -6.3925 N   0  0  0  0  0  0  0  0  0  0  0  0
    0.1594   12.3444   -6.7934 N   0  0  0  0  0  0  0  0  0  0  0  0
   -0.8210   11.5507   -7.1379 C   0  0  0  0  0  0  0  0  0  0  0  0
    0.4194   14.5816   -5.9703 C   0  0  0  0  0  0  0  0  0  0  0  0
   -4.4605   13.4170  -13.2280 O   0  0  0  0  0  0  0  0  0  0  0  0
   -6.3362   14.9020  -12.4291 O   0  0  0  0  0  0  0  0  0  0  0  0
   -4.5495   14.1196  -10.6911 N   0  0  0  0  0  0  0  0  0  0  0  0
   -3.3000   13.4420  -10.3686 C   0  0  0  0  0  0  0  0  0  0  0  0
   -2.0717   13.9935  -11.0748 C   0  0  0  0  0  0  0  0  0  0  0  0
   -2.2627   14.2439   -9.6094 C   0  0  0  0  0  0  0  0  0  0  0  0
   -6.0929   12.3066   -9.8631 H   0  0  0  0  0  0  0  0  0  0  0  0
   -8.1517   10.1219  -13.8733 H   0  0  0  0  0  0  0  0  0  0  0  0
   -6.8202   12.2294  -14.0822 H   0  0  0  0  0  0  0  0  0  0  0  0
   -8.9122    8.2303  -11.8712 H   0  0  0  0  0  0  0  0  0  0  0  0
   -8.0377    9.6171   -7.2499 H   0  0  0  0  0  0  0  0  0  0  0  0
   -6.7609   12.3104   -6.9078 H   0  0  0  0  0  0  0  0  0  0  0  0
   -4.5365   13.2843   -6.4555 H   0  0  0  0  0  0  0  0  0  0  0  0
   -3.4318   12.0299   -8.2068 H   0  0  0  0  0  0  0  0  0  0  0  0
   -2.6780    9.7532   -7.9999 H   0  0  0  0  0  0  0  0  0  0  0  0
   -4.8963    8.7799   -8.4714 H   0  0  0  0  0  0  0  0  0  0  0  0
   -2.4366   14.2100   -6.1184 H   0  0  0  0  0  0  0  0  0  0  0  0
   -0.6813   10.5543   -7.5304 H   0  0  0  0  0  0  0  0  0  0  0  0
    1.4790   14.3012   -6.0627 H   0  0  0  0  0  0  0  0  0  0  0  0
    0.2138   15.4529   -6.6095 H   0  0  0  0  0  0  0  0  0  0  0  0
    0.1971   14.8344   -4.9231 H   0  0  0  0  0  0  0  0  0  0  0  0
   -4.3503   15.0995  -10.6784 H   0  0  0  0  0  0  0  0  0  0  0  0
   -3.3270   12.3575  -10.1868 H   0  0  0  0  0  0  0  0  0  0  0  0
   -1.2811   13.3093  -11.4167 H   0  0  0  0  0  0  0  0  0  0  0  0
   -2.1756   14.8213  -11.7917 H   0  0  0  0  0  0  0  0  0  0  0  0
   -2.5050   15.2560   -9.2530 H   0  0  0  0  0  0  0  0  0  0  0  0
   -1.6106   13.7440   -8.8781 H   0  0  0  0  0  0  0  0  0  0  0  0
  1  2  2  0  0  0  0
  1  4  1  0  0  0  0
  1 11  1  0  0  0  0
  2  6  1  0  0  0  0
  3  4  2  0  0  0  0
  3  5  1  0  0  0  0
  5  6  2  0  0  0  0
  5  9  1  0  0  0  0
  6  7  1  0  0  0  0
  7  8  2  0  0  0  0
  7 10  1  0  0  0  0
  8  9  1  0  0  0  0
 10 12  2  0  0  0  0
 11 24  2  0  0  0  0
 11 25  2  0  0  0  0
 11 26  1  0  0  0  0
 12 13  1  0  0  0  0
 12 17  1  0  0  0  0
 13 14  2  0  0  0  0
 14 15  1  0  0  0  0
 15 16  1  0  0  0  0
 15 18  1  0  0  0  0
 16 17  2  0  0  0  0
 18 19  2  0  0  0  0
 18 22  1  0  0  0  0
 19 20  1  0  0  0  0
 20 21  1  0  0  0  0
 20 23  1  0  0  0  0
 21 22  2  0  0  0  0
 26 27  1  0  0  0  0
 27 28  1  0  0  0  0
 27 29  1  0  0  0  0
 28 29  1  0  0  0  0
  2 30  1  0  0  0  0
  3 31  1  0  0  0  0
  4 32  1  0  0  0  0
  9 33  1  0  0  0  0
 10 34  1  0  0  0  0
 13 35  1  0  0  0  0
 14 36  1  0  0  0  0
 15 37  1  0  0  0  0
 16 38  1  0  0  0  0
 17 39  1  0  0  0  0
 19 40  1  0  0  0  0
 22 41  1  0  0  0  0
 23 42  1  0  0  0  0
 23 43  1  0  0  0  0
 23 44  1  0  0  0  0
 26 45  1  0  0  0  0
 27 46  1  0  0  0  0
 28 47  1  0  0  0  0
 28 48  1  0  0  0  0
 29 49  1  0  0  0  0
 29 50  1  0  0  0  0
M  END
> <Name>
29

> <IC50[uM]>
0.18

$$$$
29
  -OEChem-05192314333D
 Structure written by MMmdl.
 50 54  0     0  0  0  0  0  0999 V2000
   -6.3727   12.3493  -11.9877 C   0  0  0  0  0  0  0  0  0  0  0  0
   -6.5190   11.8167  -10.7261 C   0  0  0  0  0  0  0  0  0  0  0  0
   -7.6919   10.5755  -13.0077 C   0  0  0  0  0  0  0  0  0  0  0  0
   -6.9476   11.7646  -13.1157 C   0  0  0  0  0  0  0  0  0  0  0  0
   -7.8131   10.0080  -11.7494 C   0  0  0  0  0  0  0  0  0  0  0  0
   -7.2399   10.6155  -10.5946 C   0  0  0  0  0  0  0  0  0  0  0  0
   -7.6088    9.7430   -9.5107 C   0  0  0  0  0  0  0  0  0  0  0  0
   -8.2764    8.7286   -9.9647 N   0  0  0  0  0  0  0  0  0  0  0  0
   -8.4188    8.8758  -11.2882 N   0  0  0  0  0  0  0  0  0  0  0  0
   -7.3326    9.8988   -8.0180 C   0  0  0  0  0  0  0  0  0  0  0  0
   -5.4060   13.8057  -12.2007 S   0  0  0  0  0  0  0  0  0  0  0  0
   -5.9763   10.4855   -7.7248 C   0  0  0  0  0  0  0  0  0  0  0  0
   -5.8692   11.7523   -7.1523 C   0  0  0  0  0  0  0  0  0  0  0  0
   -4.6115   12.3005   -6.8946 C   0  0  0  0  0  0  0  0  0  0  0  0
   -3.4415   11.5837   -7.2014 C   0  0  0  0  0  0  0  0  0  0  0  0
   -3.5677   10.3182   -7.7642 C   0  0  0  0  0  0  0  0  0  0  0  0
   -4.8209    9.7630   -8.0308 C   0  0  0  0  0  0  0  0  0  0  0  0
   -2.1027   12.1584   -6.9334 C   0  0  0  0  0  0  0  0  0  0  0  0
   -1.7604   13.4248   -6.4226 C   0  0  0  0  0  0  0  0  0  0  0  0
   -0.4260   13.4533   -6.3925 N   0  0  0  0  0  0  0  0  0  0  0  0
    0.1594   12.3444   -6.7934 N   0  0  0  0  0  0  0  0  0  0  0  0
   -0.8210   11.5507   -7.1379 C   0  0  0  0  0  0  0  0  0  0  0  0
    0.4194   14.5816   -5.9703 C   0  0  0  0  0  0  0  0  0  0  0  0
   -4.4605   13.4170  -13.2280 O   0  0  0  0  0  0  0  0  0  0  0  0
   -6.3362   14.9020  -12.4291 O   0  0  0  0  0  0  0  0  0  0  0  0
   -4.5495   14.1196  -10.6911 N   0  0  0  0  0  0  0  0  0  0  0  0
   -3.3000   13.4420  -10.3686 C   0  0  0  0  0  0  0  0  0  0  0  0
   -2.0717   13.9935  -11.0748 C   0  0  0  0  0  0  0  0  0  0  0  0
   -2.2627   14.2439   -9.6094 C   0  0  0  0  0  0  0  0  0  0  0  0
   -6.0929   12.3066   -9.8631 H   0  0  0  0  0  0  0  0  0  0  0  0
   -8.1517   10.1219  -13.8733 H   0  0  0  0  0  0  0  0  0  0  0  0
   -6.8202   12.2294  -14.0822 H   0  0  0  0  0  0  0  0  0  0  0  0
   -8.6255    7.9663   -9.4196 H   0  0  0  0  0  0  0  0  0  0  0  0
   -8.0377    9.6171   -7.2499 H   0  0  0  0  0  0  0  0  0  0  0  0
   -6.7609   12.3104   -6.9078 H   0  0  0  0  0  0  0  0  0  0  0  0
   -4.5365   13.2843   -6.4555 H   0  0  0  0  0  0  0  0  0  0  0  0
   -2.6780    9.7532   -7.9999 H   0  0  0  0  0  0  0  0  0  0  0  0
   -4.8773    8.8184   -7.4700 H   0  0  0  0  0  0  0  0  0  0  0  0
   -4.8532    9.5514   -9.1098 H   0  0  0  0  0  0  0  0  0  0  0  0
   -2.4366   14.2100   -6.1184 H   0  0  0  0  0  0  0  0  0  0  0  0
   -0.6813   10.5543   -7.5304 H   0  0  0  0  0  0  0  0  0  0  0  0
    1.4790   14.3012   -6.0627 H   0  0  0  0  0  0  0  0  0  0  0  0
    0.2138   15.4529   -6.6095 H   0  0  0  0  0  0  0  0  0  0  0  0
    0.1971   14.8344   -4.9231 H   0  0  0  0  0  0  0  0  0  0  0  0
   -4.3503   15.0995  -10.6784 H   0  0  0  0  0  0  0  0  0  0  0  0
   -3.3270   12.3575  -10.1868 H   0  0  0  0  0  0  0  0  0  0  0  0
   -1.2811   13.3093  -11.4167 H   0  0  0  0  0  0  0  0  0  0  0  0
   -2.1756   14.8213  -11.7917 H   0  0  0  0  0  0  0  0  0  0  0  0
   -2.5050   15.2560   -9.2530 H   0  0  0  0  0  0  0  0  0  0  0  0
   -1.6106   13.7440   -8.8781 H   0  0  0  0  0  0  0  0  0  0  0  0
  1  2  2  0  0  0  0
  1  4  1  0  0  0  0
  1 11  1  0  0  0  0
  2  6  1  0  0  0  0
  3  4  2  0  0  0  0
  3  5  1  0  0  0  0
  5  6  1  0  0  0  0
  5  9  2  0  0  0  0
  6  7  2  0  0  0  0
  7  8  1  0  0  0  0
  7 10  1  0  0  0  0
  8  9  1  0  0  0  0
 10 12  2  3  0  0  0
 11 24  2  0  0  0  0
 11 25  2  0  0  0  0
 11 26  1  0  0  0  0
 12 13  1  0  0  0  0
 12 17  1  0  0  0  0
 13 14  2  0  0  0  0
 14 15  1  0  0  0  0
 15 16  2  0  0  0  0
 15 18  1  0  0  0  0
 16 17  1  0  0  0  0
 18 19  2  0  0  0  0
 18 22  1  0  0  0  0
 19 20  1  0  0  0  0
 20 21  1  0  0  0  0
 20 23  1  0  0  0  0
 21 22  2  0  0  0  0
 26 27  1  0  0  0  0
 27 28  1  0  0  0  0
 27 29  1  0  0  0  0
 28 29  1  0  0  0  0
  2 30  1  0  0  0  0
  3 31  1  0  0  0  0
  4 32  1  0  0  0  0
  8 33  1  0  0  0  0
 10 34  1  0  0  0  0
 13 35  1  0  0  0  0
 14 36  1  0  0  0  0
 16 37  1  0  0  0  0
 17 38  1  0  0  0  0
 17 39  1  0  0  0  0
 19 40  1  0  0  0  0
 22 41  1  0  0  0  0
 23 42  1  0  0  0  0
 23 43  1  0  0  0  0
 23 44  1  0  0  0  0
 26 45  1  0  0  0  0
 27 46  1  0  0  0  0
 28 47  1  0  0  0  0
 28 48  1  0  0  0  0
 29 49  1  0  0  0  0
 29 50  1  0  0  0  0
M  END
> <Name>
29

> <IC50[uM]>
0.18

$$$$
29
  -OEChem-05192314333D
 Structure written by MMmdl.
 50 54  0     0  0  0  0  0  0999 V2000
   -6.3727   12.3493  -11.9877 C   0  0  0  0  0  0  0  0  0  0  0  0
   -6.5190   11.8167  -10.7261 C   0  0  0  0  0  0  0  0  0  0  0  0
   -7.6919   10.5755  -13.0077 C   0  0  0  0  0  0  0  0  0  0  0  0
   -6.9476   11.7646  -13.1157 C   0  0  0  0  0  0  0  0  0  0  0  0
   -7.8131   10.0080  -11.7494 C   0  0  0  0  0  0  0  0  0  0  0  0
   -7.2399   10.6155  -10.5946 C   0  0  0  0  0  0  0  0  0  0  0  0
   -7.6088    9.7430   -9.5107 C   0  0  0  0  0  0  0  0  0  0  0  0
   -8.2764    8.7286   -9.9647 N   0  0  0  0  0  0  0  0  0  0  0  0
   -8.4188    8.8758  -11.2882 N   0  0  0  0  0  0  0  0  0  0  0  0
   -7.3326    9.8988   -8.0180 C   0  0  0  0  0  0  0  0  0  0  0  0
   -5.4060   13.8057  -12.2007 S   0  0  0  0  0  0  0  0  0  0  0  0
   -5.9763   10.4855   -7.7248 C   0  0  0  0  0  0  0  0  0  0  0  0
   -5.8692   11.7523   -7.1523 C   0  0  0  0  0  0  0  0  0  0  0  0
   -4.6115   12.3005   -6.8946 C   0  0  0  0  0  0  0  0  0  0  0  0
   -3.4415   11.5837   -7.2014 C   0  0  0  0  0  0  0  0  0  0  0  0
   -3.5677   10.3182   -7.7642 C   0  0  0  0  0  0  0  0  0  0  0  0
   -4.8209    9.7630   -8.0308 C   0  0  0  0  0  0  0  0  0  0  0  0
   -2.1027   12.1584   -6.9334 C   0  0  0  0  0  0  0  0  0  0  0  0
   -1.7604   13.4248   -6.4226 C   0  0  0  0  0  0  0  0  0  0  0  0
   -0.4260   13.4533   -6.3925 N   0  0  0  0  0  0  0  0  0  0  0  0
    0.1594   12.3444   -6.7934 N   0  0  0  0  0  0  0  0  0  0  0  0
   -0.8210   11.5507   -7.1379 C   0  0  0  0  0  0  0  0  0  0  0  0
    0.4194   14.5816   -5.9703 C   0  0  0  0  0  0  0  0  0  0  0  0
   -4.4605   13.4170  -13.2280 O   0  0  0  0  0  0  0  0  0  0  0  0
   -6.3362   14.9020  -12.4291 O   0  0  0  0  0  0  0  0  0  0  0  0
   -4.5495   14.1196  -10.6911 N   0  0  0  0  0  0  0  0  0  0  0  0
   -3.3000   13.4420  -10.3686 C   0  0  0  0  0  0  0  0  0  0  0  0
   -2.0717   13.9935  -11.0748 C   0  0  0  0  0  0  0  0  0  0  0  0
   -2.2627   14.2439   -9.6094 C   0  0  0  0  0  0  0  0  0  0  0  0
   -6.0929   12.3066   -9.8631 H   0  0  0  0  0  0  0  0  0  0  0  0
   -8.1517   10.1219  -13.8733 H   0  0  0  0  0  0  0  0  0  0  0  0
   -6.8202   12.2294  -14.0822 H   0  0  0  0  0  0  0  0  0  0  0  0
   -8.9122    8.2303  -11.8712 H   0  0  0  0  0  0  0  0  0  0  0  0
   -8.0377    9.6171   -7.2499 H   0  0  0  0  0  0  0  0  0  0  0  0
   -6.7609   12.3104   -6.9078 H   0  0  0  0  0  0  0  0  0  0  0  0
   -4.5365   13.2843   -6.4555 H   0  0  0  0  0  0  0  0  0  0  0  0
   -2.6780    9.7532   -7.9999 H   0  0  0  0  0  0  0  0  0  0  0  0
   -4.8773    8.8184   -7.4700 H   0  0  0  0  0  0  0  0  0  0  0  0
   -4.8532    9.5514   -9.1098 H   0  0  0  0  0  0  0  0  0  0  0  0
   -2.4366   14.2100   -6.1184 H   0  0  0  0  0  0  0  0  0  0  0  0
   -0.6813   10.5543   -7.5304 H   0  0  0  0  0  0  0  0  0  0  0  0
    1.4790   14.3012   -6.0627 H   0  0  0  0  0  0  0  0  0  0  0  0
    0.2138   15.4529   -6.6095 H   0  0  0  0  0  0  0  0  0  0  0  0
    0.1971   14.8344   -4.9231 H   0  0  0  0  0  0  0  0  0  0  0  0
   -4.3503   15.0995  -10.6784 H   0  0  0  0  0  0  0  0  0  0  0  0
   -3.3270   12.3575  -10.1868 H   0  0  0  0  0  0  0  0  0  0  0  0
   -1.2811   13.3093  -11.4167 H   0  0  0  0  0  0  0  0  0  0  0  0
   -2.1756   14.8213  -11.7917 H   0  0  0  0  0  0  0  0  0  0  0  0
   -2.5050   15.2560   -9.2530 H   0  0  0  0  0  0  0  0  0  0  0  0
   -1.6106   13.7440   -8.8781 H   0  0  0  0  0  0  0  0  0  0  0  0
  1  2  2  0  0  0  0
  1  4  1  0  0  0  0
  1 11  1  0  0  0  0
  2  6  1  0  0  0  0
  3  4  2  0  0  0  0
  3  5  1  0  0  0  0
  5  6  2  0  0  0  0
  5  9  1  0  0  0  0
  6  7  1  0  0  0  0
  7  8  2  0  0  0  0
  7 10  1  0  0  0  0
  8  9  1  0  0  0  0
 10 12  2  3  0  0  0
 11 24  2  0  0  0  0
 11 25  2  0  0  0  0
 11 26  1  0  0  0  0
 12 13  1  0  0  0  0
 12 17  1  0  0  0  0
 13 14  2  0  0  0  0
 14 15  1  0  0  0  0
 15 16  2  0  0  0  0
 15 18  1  0  0  0  0
 16 17  1  0  0  0  0
 18 19  2  0  0  0  0
 18 22  1  0  0  0  0
 19 20  1  0  0  0  0
 20 21  1  0  0  0  0
 20 23  1  0  0  0  0
 21 22  2  0  0  0  0
 26 27  1  0  0  0  0
 27 28  1  0  0  0  0
 27 29  1  0  0  0  0
 28 29  1  0  0  0  0
  2 30  1  0  0  0  0
  3 31  1  0  0  0  0
  4 32  1  0  0  0  0
  9 33  1  0  0  0  0
 10 34  1  0  0  0  0
 13 35  1  0  0  0  0
 14 36  1  0  0  0  0
 16 37  1  0  0  0  0
 17 38  1  0  0  0  0
 17 39  1  0  0  0  0
 19 40  1  0  0  0  0
 22 41  1  0  0  0  0
 23 42  1  0  0  0  0
 23 43  1  0  0  0  0
 23 44  1  0  0  0  0
 26 45  1  0  0  0  0
 27 46  1  0  0  0  0
 28 47  1  0  0  0  0
 28 48  1  0  0  0  0
 29 49  1  0  0  0  0
 29 50  1  0  0  0  0
M  END
> <Name>
29

> <IC50[uM]>
0.18

$$$$
29
  -OEChem-05192314333D
 Structure written by MMmdl.
 50 54  0     1  0  0  0  0  0999 V2000
   -6.3727   12.3493  -11.9877 C   0  0  0  0  0  0  0  0  0  0  0  0
   -6.5190   11.8167  -10.7261 C   0  0  0  0  0  0  0  0  0  0  0  0
   -7.6919   10.5755  -13.0077 C   0  0  0  0  0  0  0  0  0  0  0  0
   -6.9476   11.7646  -13.1157 C   0  0  0  0  0  0  0  0  0  0  0  0
   -7.8131   10.0080  -11.7494 C   0  0  0  0  0  0  0  0  0  0  0  0
   -7.2399   10.6155  -10.5946 C   0  0  0  0  0  0  0  0  0  0  0  0
   -7.6088    9.7430   -9.5107 C   0  0  0  0  0  0  0  0  0  0  0  0
   -8.2764    8.7286   -9.9647 N   0  0  0  0  0  0  0  0  0  0  0  0
   -8.4188    8.8758  -11.2882 N   0  0  0  0  0  0  0  0  0  0  0  0
   -7.3326    9.8988   -8.0180 C   0  0  0  0  0  0  0  0  0  0  0  0
   -5.4060   13.8057  -12.2007 S   0  0  0  0  0  0  0  0  0  0  0  0
   -5.9763   10.4855   -7.7248 C   0  0  0  0  0  0  0  0  0  0  0  0
   -5.8692   11.7523   -7.1523 C   0  0  0  0  0  0  0  0  0  0  0  0
   -4.6115   12.3005   -6.8946 C   0  0  0  0  0  0  0  0  0  0  0  0
   -3.4415   11.5837   -7.2014 C   0  0  0  0  0  0  0  0  0  0  0  0
   -3.5677   10.3182   -7.7642 C   0  0  0  0  0  0  0  0  0  0  0  0
   -4.8209    9.7630   -8.0308 C   0  0  0  0  0  0  0  0  0  0  0  0
   -2.1027   12.1584   -6.9334 C   0  0  3  0  0  0  0  0  0  0  0  0
   -1.7604   13.4248   -6.4226 C   0  0  0  0  0  0  0  0  0  0  0  0
   -0.4260   13.4533   -6.3925 N   0  0  3  0  0  0  0  0  0  0  0  0
    0.1594   12.3444   -6.7934 N   0  0  0  0  0  0  0  0  0  0  0  0
   -0.8210   11.5507   -7.1379 C   0  0  0  0  0  0  0  0  0  0  0  0
    0.4194   14.5816   -5.9703 C   0  0  0  0  0  0  0  0  0  0  0  0
   -4.4605   13.4170  -13.2280 O   0  0  0  0  0  0  0  0  0  0  0  0
   -6.3362   14.9020  -12.4291 O   0  0  0  0  0  0  0  0  0  0  0  0
   -4.5495   14.1196  -10.6911 N   0  0  0  0  0  0  0  0  0  0  0  0
   -3.3000   13.4420  -10.3686 C   0  0  0  0  0  0  0  0  0  0  0  0
   -2.0717   13.9935  -11.0748 C   0  0  0  0  0  0  0  0  0  0  0  0
   -2.2627   14.2439   -9.6094 C   0  0  0  0  0  0  0  0  0  0  0  0
   -6.0929   12.3066   -9.8631 H   0  0  0  0  0  0  0  0  0  0  0  0
   -8.1517   10.1219  -13.8733 H   0  0  0  0  0  0  0  0  0  0  0  0
   -6.8202   12.2294  -14.0822 H   0  0  0  0  0  0  0  0  0  0  0  0
   -8.0377    9.6171   -7.2499 H   0  0  0  0  0  0  0  0  0  0  0  0
   -6.7609   12.3104   -6.9078 H   0  0  0  0  0  0  0  0  0  0  0  0
   -4.5365   13.2843   -6.4555 H   0  0  0  0  0  0  0  0  0  0  0  0
   -2.6780    9.7532   -7.9999 H   0  0  0  0  0  0  0  0  0  0  0  0
   -4.8963    8.7799   -8.4714 H   0  0  0  0  0  0  0  0  0  0  0  0
   -2.1326   11.7533   -5.9112 H   0  0  0  0  0  0  0  0  0  0  0  0
   -2.1464   14.2197   -7.0777 H   0  0  0  0  0  0  0  0  0  0  0  0
   -2.1698   13.5533   -5.4097 H   0  0  0  0  0  0  0  0  0  0  0  0
   -0.6813   10.5543   -7.5304 H   0  0  0  0  0  0  0  0  0  0  0  0
    1.4790   14.3012   -6.0627 H   0  0  0  0  0  0  0  0  0  0  0  0
    0.2138   15.4529   -6.6095 H   0  0  0  0  0  0  0  0  0  0  0  0
    0.1971   14.8344   -4.9231 H   0  0  0  0  0  0  0  0  0  0  0  0
   -4.3503   15.0995  -10.6784 H   0  0  0  0  0  0  0  0  0  0  0  0
   -3.3270   12.3575  -10.1868 H   0  0  0  0  0  0  0  0  0  0  0  0
   -1.2811   13.3093  -11.4167 H   0  0  0  0  0  0  0  0  0  0  0  0
   -2.1756   14.8213  -11.7917 H   0  0  0  0  0  0  0  0  0  0  0  0
   -2.5050   15.2560   -9.2530 H   0  0  0  0  0  0  0  0  0  0  0  0
   -1.6106   13.7440   -8.8781 H   0  0  0  0  0  0  0  0  0  0  0  0
  1  2  2  0  0  0  0
  1  4  1  0  0  0  0
  1 11  1  0  0  0  0
  2  6  1  0  0  0  0
  3  4  2  0  0  0  0
  3  5  1  0  0  0  0
  5  6  2  0  0  0  0
  5  9  1  0  0  0  0
  6  7  1  0  0  0  0
  7  8  1  0  0  0  0
  7 10  2  3  0  0  0
  8  9  2  0  0  0  0
 10 12  1  0  0  0  0
 11 24  2  0  0  0  0
 11 25  2  0  0  0  0
 11 26  1  0  0  0  0
 12 13  2  0  0  0  0
 12 17  1  0  0  0  0
 13 14  1  0  0  0  0
 14 15  2  0  0  0  0
 15 16  1  0  0  0  0
 15 18  1  0  0  0  0
 16 17  2  0  0  0  0
 18 19  1  0  0  0  0
 18 22  1  0  0  0  0
 19 20  1  0  0  0  0
 20 21  1  0  0  0  0
 20 23  1  0  0  0  0
 21 22  2  0  0  0  0
 26 27  1  0  0  0  0
 27 28  1  0  0  0  0
 27 29  1  0  0  0  0
 28 29  1  0  0  0  0
  2 30  1  0  0  0  0
  3 31  1  0  0  0  0
  4 32  1  0  0  0  0
 10 33  1  0  0  0  0
 13 34  1  0  0  0  0
 14 35  1  0  0  0  0
 16 36  1  0  0  0  0
 17 37  1  0  0  0  0
 18 38  1  0  0  0  0
 19 39  1  0  0  0  0
 19 40  1  0  0  0  0
 22 41  1  0  0  0  0
 23 42  1  0  0  0  0
 23 43  1  0  0  0  0
 23 44  1  0  0  0  0
 26 45  1  0  0  0  0
 27 46  1  0  0  0  0
 28 47  1  0  0  0  0
 28 48  1  0  0  0  0
 29 49  1  0  0  0  0
 29 50  1  0  0  0  0
M  END
> <Name>
29

> <IC50[uM]>
0.18

$$$$
29
  -OEChem-05192314333D
 Structure written by MMmdl.
 50 54  0     1  0  0  0  0  0999 V2000
   -6.3727   12.3493  -11.9877 C   0  0  0  0  0  0  0  0  0  0  0  0
   -6.5190   11.8167  -10.7261 C   0  0  0  0  0  0  0  0  0  0  0  0
   -7.6919   10.5755  -13.0077 C   0  0  0  0  0  0  0  0  0  0  0  0
   -6.9476   11.7646  -13.1157 C   0  0  0  0  0  0  0  0  0  0  0  0
   -7.8131   10.0080  -11.7494 C   0  0  0  0  0  0  0  0  0  0  0  0
   -7.2399   10.6155  -10.5946 C   0  0  0  0  0  0  0  0  0  0  0  0
   -7.6088    9.7430   -9.5107 C   0  0  0  0  0  0  0  0  0  0  0  0
   -8.2764    8.7286   -9.9647 N   0  0  0  0  0  0  0  0  0  0  0  0
   -8.4188    8.8758  -11.2882 N   0  0  0  0  0  0  0  0  0  0  0  0
   -7.3326    9.8988   -8.0180 C   0  0  0  0  0  0  0  0  0  0  0  0
   -5.4060   13.8057  -12.2007 S   0  0  0  0  0  0  0  0  0  0  0  0
   -5.9763   10.4855   -7.7248 C   0  0  0  0  0  0  0  0  0  0  0  0
   -5.8692   11.7523   -7.1523 C   0  0  0  0  0  0  0  0  0  0  0  0
   -4.6115   12.3005   -6.8946 C   0  0  0  0  0  0  0  0  0  0  0  0
   -3.4415   11.5837   -7.2014 C   0  0  0  0  0  0  0  0  0  0  0  0
   -3.5677   10.3182   -7.7642 C   0  0  0  0  0  0  0  0  0  0  0  0
   -4.8209    9.7630   -8.0308 C   0  0  0  0  0  0  0  0  0  0  0  0
   -2.1027   12.1584   -6.9334 C   0  0  0  0  0  0  0  0  0  0  0  0
   -1.7604   13.4248   -6.4226 C   0  0  0  0  0  0  0  0  0  0  0  0
   -0.4260   13.4533   -6.3925 N   0  0  3  0  0  0  0  0  0  0  0  0
    0.1594   12.3444   -6.7934 N   0  0  0  0  0  0  0  0  0  0  0  0
   -0.8210   11.5507   -7.1379 C   0  0  0  0  0  0  0  0  0  0  0  0
    0.4194   14.5816   -5.9703 C   0  0  0  0  0  0  0  0  0  0  0  0
   -4.4605   13.4170  -13.2280 O   0  0  0  0  0  0  0  0  0  0  0  0
   -6.3362   14.9020  -12.4291 O   0  0  0  0  0  0  0  0  0  0  0  0
   -4.5495   14.1196  -10.6911 N   0  0  0  0  0  0  0  0  0  0  0  0
   -3.3000   13.4420  -10.3686 C   0  0  0  0  0  0  0  0  0  0  0  0
   -2.0717   13.9935  -11.0748 C   0  0  0  0  0  0  0  0  0  0  0  0
   -2.2627   14.2439   -9.6094 C   0  0  0  0  0  0  0  0  0  0  0  0
   -6.0929   12.3066   -9.8631 H   0  0  0  0  0  0  0  0  0  0  0  0
   -8.1517   10.1219  -13.8733 H   0  0  0  0  0  0  0  0  0  0  0  0
   -6.8202   12.2294  -14.0822 H   0  0  0  0  0  0  0  0  0  0  0  0
   -8.0377    9.6171   -7.2499 H   0  0  0  0  0  0  0  0  0  0  0  0
   -6.7609   12.3104   -6.9078 H   0  0  0  0  0  0  0  0  0  0  0  0
   -4.5365   13.2843   -6.4555 H   0  0  0  0  0  0  0  0  0  0  0  0
   -2.6780    9.7532   -7.9999 H   0  0  0  0  0  0  0  0  0  0  0  0
   -4.8963    8.7799   -8.4714 H   0  0  0  0  0  0  0  0  0  0  0  0
   -2.4366   14.2100   -6.1184 H   0  0  0  0  0  0  0  0  0  0  0  0
    0.7569   12.5248   -7.5747 H   0  0  0  0  0  0  0  0  0  0  0  0
   -0.7632   10.6328   -6.5345 H   0  0  0  0  0  0  0  0  0  0  0  0
   -0.7145   11.2968   -8.2029 H   0  0  0  0  0  0  0  0  0  0  0  0
    1.4790   14.2992   -6.0572 H   0  0  0  0  0  0  0  0  0  0  0  0
    0.2180   15.4512   -6.6131 H   0  0  0  0  0  0  0  0  0  0  0  0
    0.1930   14.8382   -4.9249 H   0  0  0  0  0  0  0  0  0  0  0  0
   -4.3503   15.0995  -10.6784 H   0  0  0  0  0  0  0  0  0  0  0  0
   -3.3270   12.3575  -10.1868 H   0  0  0  0  0  0  0  0  0  0  0  0
   -1.2811   13.3093  -11.4167 H   0  0  0  0  0  0  0  0  0  0  0  0
   -2.1756   14.8213  -11.7917 H   0  0  0  0  0  0  0  0  0  0  0  0
   -2.5050   15.2560   -9.2530 H   0  0  0  0  0  0  0  0  0  0  0  0
   -1.6106   13.7440   -8.8781 H   0  0  0  0  0  0  0  0  0  0  0  0
  1  2  2  0  0  0  0
  1  4  1  0  0  0  0
  1 11  1  0  0  0  0
  2  6  1  0  0  0  0
  3  4  2  0  0  0  0
  3  5  1  0  0  0  0
  5  6  2  0  0  0  0
  5  9  1  0  0  0  0
  6  7  1  0  0  0  0
  7  8  1  0  0  0  0
  7 10  2  3  0  0  0
  8  9  2  0  0  0  0
 10 12  1  0  0  0  0
 11 24  2  0  0  0  0
 11 25  2  0  0  0  0
 11 26  1  0  0  0  0
 12 13  2  0  0  0  0
 12 17  1  0  0  0  0
 13 14  1  0  0  0  0
 14 15  2  0  0  0  0
 15 16  1  0  0  0  0
 15 18  1  0  0  0  0
 16 17  2  0  0  0  0
 18 19  2  0  0  0  0
 18 22  1  0  0  0  0
 19 20  1  0  0  0  0
 20 21  1  0  0  0  0
 20 23  1  0  0  0  0
 21 22  1  0  0  0  0
 26 27  1  0  0  0  0
 27 28  1  0  0  0  0
 27 29  1  0  0  0  0
 28 29  1  0  0  0  0
  2 30  1  0  0  0  0
  3 31  1  0  0  0  0
  4 32  1  0  0  0  0
 10 33  1  0  0  0  0
 13 34  1  0  0  0  0
 14 35  1  0  0  0  0
 16 36  1  0  0  0  0
 17 37  1  0  0  0  0
 19 38  1  0  0  0  0
 21 39  1  0  0  0  0
 22 40  1  0  0  0  0
 22 41  1  0  0  0  0
 23 42  1  0  0  0  0
 23 43  1  0  0  0  0
 23 44  1  0  0  0  0
 26 45  1  0  0  0  0
 27 46  1  0  0  0  0
 28 47  1  0  0  0  0
 28 48  1  0  0  0  0
 29 49  1  0  0  0  0
 29 50  1  0  0  0  0
M  END
> <Name>
29

> <IC50[uM]>
0.18

$$$$
29
  -OEChem-05192314333D
 Structure written by MMmdl.
 50 54  0     1  0  0  0  0  0999 V2000
   -6.3727   12.3493  -11.9877 C   0  0  0  0  0  0  0  0  0  0  0  0
   -6.5190   11.8167  -10.7261 C   0  0  0  0  0  0  0  0  0  0  0  0
   -7.6919   10.5755  -13.0077 C   0  0  0  0  0  0  0  0  0  0  0  0
   -6.9476   11.7646  -13.1157 C   0  0  0  0  0  0  0  0  0  0  0  0
   -7.8131   10.0080  -11.7494 C   0  0  0  0  0  0  0  0  0  0  0  0
   -7.2399   10.6155  -10.5946 C   0  0  0  0  0  0  0  0  0  0  0  0
   -7.6088    9.7430   -9.5107 C   0  0  0  0  0  0  0  0  0  0  0  0
   -8.2764    8.7286   -9.9647 N   0  0  0  0  0  0  0  0  0  0  0  0
   -8.4188    8.8758  -11.2882 N   0  0  0  0  0  0  0  0  0  0  0  0
   -7.3326    9.8988   -8.0180 C   0  0  0  0  0  0  0  0  0  0  0  0
   -5.4060   13.8057  -12.2007 S   0  0  0  0  0  0  0  0  0  0  0  0
   -5.9763   10.4855   -7.7248 C   0  0  0  0  0  0  0  0  0  0  0  0
   -5.8692   11.7523   -7.1523 C   0  0  0  0  0  0  0  0  0  0  0  0
   -4.6115   12.3005   -6.8946 C   0  0  0  0  0  0  0  0  0  0  0  0
   -3.4415   11.5837   -7.2014 C   0  0  0  0  0  0  0  0  0  0  0  0
   -3.5677   10.3182   -7.7642 C   0  0  0  0  0  0  0  0  0  0  0  0
   -4.8209    9.7630   -8.0308 C   0  0  0  0  0  0  0  0  0  0  0  0
   -2.1027   12.1584   -6.9334 C   0  0  0  0  0  0  0  0  0  0  0  0
   -1.7604   13.4248   -6.4226 C   0  0  0  0  0  0  0  0  0  0  0  0
   -0.4260   13.4533   -6.3925 N   0  0  3  0  0  0  0  0  0  0  0  0
    0.1594   12.3444   -6.7934 N   0  0  0  0  0  0  0  0  0  0  0  0
   -0.8210   11.5507   -7.1379 C   0  0  0  0  0  0  0  0  0  0  0  0
    0.4194   14.5816   -5.9703 C   0  0  0  0  0  0  0  0  0  0  0  0
   -4.4605   13.4170  -13.2280 O   0  0  0  0  0  0  0  0  0  0  0  0
   -6.3362   14.9020  -12.4291 O   0  0  0  0  0  0  0  0  0  0  0  0
   -4.5495   14.1196  -10.6911 N   0  0  0  0  0  0  0  0  0  0  0  0
   -3.3000   13.4420  -10.3686 C   0  0  0  0  0  0  0  0  0  0  0  0
   -2.0717   13.9935  -11.0748 C   0  0  0  0  0  0  0  0  0  0  0  0
   -2.2627   14.2439   -9.6094 C   0  0  0  0  0  0  0  0  0  0  0  0
   -6.0929   12.3066   -9.8631 H   0  0  0  0  0  0  0  0  0  0  0  0
   -8.1517   10.1219  -13.8733 H   0  0  0  0  0  0  0  0  0  0  0  0
   -6.8202   12.2294  -14.0822 H   0  0  0  0  0  0  0  0  0  0  0  0
   -8.0377    9.6171   -7.2499 H   0  0  0  0  0  0  0  0  0  0  0  0
   -6.7609   12.3104   -6.9078 H   0  0  0  0  0  0  0  0  0  0  0  0
   -4.5365   13.2843   -6.4555 H   0  0  0  0  0  0  0  0  0  0  0  0
   -2.6780    9.7532   -7.9999 H   0  0  0  0  0  0  0  0  0  0  0  0
   -4.8963    8.7799   -8.4714 H   0  0  0  0  0  0  0  0  0  0  0  0
   -2.1464   14.2197   -7.0777 H   0  0  0  0  0  0  0  0  0  0  0  0
   -2.1698   13.5533   -5.4097 H   0  0  0  0  0  0  0  0  0  0  0  0
    0.7569   12.5248   -7.5747 H   0  0  0  0  0  0  0  0  0  0  0  0
   -0.6813   10.5543   -7.5304 H   0  0  0  0  0  0  0  0  0  0  0  0
    1.4790   14.2992   -6.0572 H   0  0  0  0  0  0  0  0  0  0  0  0
    0.2180   15.4512   -6.6131 H   0  0  0  0  0  0  0  0  0  0  0  0
    0.1930   14.8382   -4.9249 H   0  0  0  0  0  0  0  0  0  0  0  0
   -4.3503   15.0995  -10.6784 H   0  0  0  0  0  0  0  0  0  0  0  0
   -3.3270   12.3575  -10.1868 H   0  0  0  0  0  0  0  0  0  0  0  0
   -1.2811   13.3093  -11.4167 H   0  0  0  0  0  0  0  0  0  0  0  0
   -2.1756   14.8213  -11.7917 H   0  0  0  0  0  0  0  0  0  0  0  0
   -2.5050   15.2560   -9.2530 H   0  0  0  0  0  0  0  0  0  0  0  0
   -1.6106   13.7440   -8.8781 H   0  0  0  0  0  0  0  0  0  0  0  0
  1  2  2  0  0  0  0
  1  4  1  0  0  0  0
  1 11  1  0  0  0  0
  2  6  1  0  0  0  0
  3  4  2  0  0  0  0
  3  5  1  0  0  0  0
  5  6  2  0  0  0  0
  5  9  1  0  0  0  0
  6  7  1  0  0  0  0
  7  8  1  0  0  0  0
  7 10  2  3  0  0  0
  8  9  2  0  0  0  0
 10 12  1  0  0  0  0
 11 24  2  0  0  0  0
 11 25  2  0  0  0  0
 11 26  1  0  0  0  0
 12 13  2  0  0  0  0
 12 17  1  0  0  0  0
 13 14  1  0  0  0  0
 14 15  2  0  0  0  0
 15 16  1  0  0  0  0
 15 18  1  0  0  0  0
 16 17  2  0  0  0  0
 18 19  1  0  0  0  0
 18 22  2  0  0  0  0
 19 20  1  0  0  0  0
 20 21  1  0  0  0  0
 20 23  1  0  0  0  0
 21 22  1  0  0  0  0
 26 27  1  0  0  0  0
 27 28  1  0  0  0  0
 27 29  1  0  0  0  0
 28 29  1  0  0  0  0
  2 30  1  0  0  0  0
  3 31  1  0  0  0  0
  4 32  1  0  0  0  0
 10 33  1  0  0  0  0
 13 34  1  0  0  0  0
 14 35  1  0  0  0  0
 16 36  1  0  0  0  0
 17 37  1  0  0  0  0
 19 38  1  0  0  0  0
 19 39  1  0  0  0  0
 21 40  1  0  0  0  0
 22 41  1  0  0  0  0
 23 42  1  0  0  0  0
 23 43  1  0  0  0  0
 23 44  1  0  0  0  0
 26 45  1  0  0  0  0
 27 46  1  0  0  0  0
 28 47  1  0  0  0  0
 28 48  1  0  0  0  0
 29 49  1  0  0  0  0
 29 50  1  0  0  0  0
M  END
> <Name>
29

> <IC50[uM]>
0.18

$$$$
29
  -OEChem-05192314333D
 Structure written by MMmdl.
 50 54  0     1  0  0  0  0  0999 V2000
   -6.3727   12.3493  -11.9877 C   0  0  0  0  0  0  0  0  0  0  0  0
   -6.5190   11.8167  -10.7261 C   0  0  0  0  0  0  0  0  0  0  0  0
   -7.6919   10.5755  -13.0077 C   0  0  0  0  0  0  0  0  0  0  0  0
   -6.9476   11.7646  -13.1157 C   0  0  0  0  0  0  0  0  0  0  0  0
   -7.8131   10.0080  -11.7494 C   0  0  0  0  0  0  0  0  0  0  0  0
   -7.2399   10.6155  -10.5946 C   0  0  0  0  0  0  0  0  0  0  0  0
   -7.6088    9.7430   -9.5107 C   0  0  3  0  0  0  0  0  0  0  0  0
   -8.2764    8.7286   -9.9647 N   0  0  0  0  0  0  0  0  0  0  0  0
   -8.4188    8.8758  -11.2882 N   0  0  0  0  0  0  0  0  0  0  0  0
   -7.3326    9.8988   -8.0180 C   0  0  0  0  0  0  0  0  0  0  0  0
   -5.4060   13.8057  -12.2007 S   0  0  0  0  0  0  0  0  0  0  0  0
   -5.9763   10.4855   -7.7248 C   0  0  0  0  0  0  0  0  0  0  0  0
   -5.8692   11.7523   -7.1523 C   0  0  0  0  0  0  0  0  0  0  0  0
   -4.6115   12.3005   -6.8946 C   0  0  0  0  0  0  0  0  0  0  0  0
   -3.4415   11.5837   -7.2014 C   0  0  0  0  0  0  0  0  0  0  0  0
   -3.5677   10.3182   -7.7642 C   0  0  0  0  0  0  0  0  0  0  0  0
   -4.8209    9.7630   -8.0308 C   0  0  0  0  0  0  0  0  0  0  0  0
   -2.1027   12.1584   -6.9334 C   0  0  0  0  0  0  0  0  0  0  0  0
   -1.7604   13.4248   -6.4226 C   0  0  0  0  0  0  0  0  0  0  0  0
   -0.4260   13.4533   -6.3925 N   0  0  3  0  0  0  0  0  0  0  0  0
    0.1594   12.3444   -6.7934 N   0  0  0  0  0  0  0  0  0  0  0  0
   -0.8210   11.5507   -7.1379 C   0  0  0  0  0  0  0  0  0  0  0  0
    0.4194   14.5816   -5.9703 C   0  0  0  0  0  0  0  0  0  0  0  0
   -4.4605   13.4170  -13.2280 O   0  0  0  0  0  0  0  0  0  0  0  0
   -6.3362   14.9020  -12.4291 O   0  0  0  0  0  0  0  0  0  0  0  0
   -4.5495   14.1196  -10.6911 N   0  0  0  0  0  0  0  0  0  0  0  0
   -3.3000   13.4420  -10.3686 C   0  0  0  0  0  0  0  0  0  0  0  0
   -2.0717   13.9935  -11.0748 C   0  0  0  0  0  0  0  0  0  0  0  0
   -2.2627   14.2439   -9.6094 C   0  0  0  0  0  0  0  0  0  0  0  0
   -6.0929   12.3066   -9.8631 H   0  0  0  0  0  0  0  0  0  0  0  0
   -8.1517   10.1219  -13.8733 H   0  0  0  0  0  0  0  0  0  0  0  0
   -6.8202   12.2294  -14.0822 H   0  0  0  0  0  0  0  0  0  0  0  0
   -6.6681    9.1858   -9.6318 H   0  0  0  0  0  0  0  0  0  0  0  0
   -8.0377    9.6171   -7.2499 H   0  0  0  0  0  0  0  0  0  0  0  0
   -6.7609   12.3104   -6.9078 H   0  0  0  0  0  0  0  0  0  0  0  0
   -4.5365   13.2843   -6.4555 H   0  0  0  0  0  0  0  0  0  0  0  0
   -2.6780    9.7532   -7.9999 H   0  0  0  0  0  0  0  0  0  0  0  0
   -4.8963    8.7799   -8.4714 H   0  0  0  0  0  0  0  0  0  0  0  0
   -2.1464   14.2197   -7.0777 H   0  0  0  0  0  0  0  0  0  0  0  0
   -2.1698   13.5533   -5.4097 H   0  0  0  0  0  0  0  0  0  0  0  0
   -0.6813   10.5543   -7.5304 H   0  0  0  0  0  0  0  0  0  0  0  0
    1.4790   14.3012   -6.0627 H   0  0  0  0  0  0  0  0  0  0  0  0
    0.2138   15.4529   -6.6095 H   0  0  0  0  0  0  0  0  0  0  0  0
    0.1971   14.8344   -4.9231 H   0  0  0  0  0  0  0  0  0  0  0  0
   -4.3503   15.0995  -10.6784 H   0  0  0  0  0  0  0  0  0  0  0  0
   -3.3270   12.3575  -10.1868 H   0  0  0  0  0  0  0  0  0  0  0  0
   -1.2811   13.3093  -11.4167 H   0  0  0  0  0  0  0  0  0  0  0  0
   -2.1756   14.8213  -11.7917 H   0  0  0  0  0  0  0  0  0  0  0  0
   -2.5050   15.2560   -9.2530 H   0  0  0  0  0  0  0  0  0  0  0  0
   -1.6106   13.7440   -8.8781 H   0  0  0  0  0  0  0  0  0  0  0  0
  1  2  2  0  0  0  0
  1  4  1  0  0  0  0
  1 11  1  0  0  0  0
  2  6  1  0  0  0  0
  3  4  2  0  0  0  0
  3  5  1  0  0  0  0
  5  6  2  0  0  0  0
  5  9  1  0  0  0  0
  6  7  1  0  0  0  0
  7  8  1  0  0  0  0
  7 10  1  0  0  0  0
  8  9  2  0  0  0  0
 10 12  2  0  0  0  0
 11 24  2  0  0  0  0
 11 25  2  0  0  0  0
 11 26  1  0  0  0  0
 12 13  1  0  0  0  0
 12 17  1  0  0  0  0
 13 14  2  0  0  0  0
 14 15  1  0  0  0  0
 15 16  1  0  0  0  0
 15 18  2  0  0  0  0
 16 17  2  0  0  0  0
 18 19  1  0  0  0  0
 18 22  1  0  0  0  0
 19 20  1  0  0  0  0
 20 21  1  0  0  0  0
 20 23  1  0  0  0  0
 21 22  2  0  0  0  0
 26 27  1  0  0  0  0
 27 28  1  0  0  0  0
 27 29  1  0  0  0  0
 28 29  1  0  0  0  0
  2 30  1  0  0  0  0
  3 31  1  0  0  0  0
  4 32  1  0  0  0  0
  7 33  1  0  0  0  0
 10 34  1  0  0  0  0
 13 35  1  0  0  0  0
 14 36  1  0  0  0  0
 16 37  1  0  0  0  0
 17 38  1  0  0  0  0
 19 39  1  0  0  0  0
 19 40  1  0  0  0  0
 22 41  1  0  0  0  0
 23 42  1  0  0  0  0
 23 43  1  0  0  0  0
 23 44  1  0  0  0  0
 26 45  1  0  0  0  0
 27 46  1  0  0  0  0
 28 47  1  0  0  0  0
 28 48  1  0  0  0  0
 29 49  1  0  0  0  0
 29 50  1  0  0  0  0
M  END
> <Name>
29

> <IC50[uM]>
0.18

$$$$
29
  -OEChem-05192314333D
 Structure written by MMmdl.
 50 54  0     1  0  0  0  0  0999 V2000
   -6.3727   12.3493  -11.9877 C   0  0  3  0  0  0  0  0  0  0  0  0
   -6.5190   11.8167  -10.7261 C   0  0  0  0  0  0  0  0  0  0  0  0
   -7.6919   10.5755  -13.0077 C   0  0  0  0  0  0  0  0  0  0  0  0
   -6.9476   11.7646  -13.1157 C   0  0  0  0  0  0  0  0  0  0  0  0
   -7.8131   10.0080  -11.7494 C   0  0  0  0  0  0  0  0  0  0  0  0
   -7.2399   10.6155  -10.5946 C   0  0  0  0  0  0  0  0  0  0  0  0
   -7.6088    9.7430   -9.5107 C   0  0  0  0  0  0  0  0  0  0  0  0
   -8.2764    8.7286   -9.9647 N   0  0  0  0  0  0  0  0  0  0  0  0
   -8.4188    8.8758  -11.2882 N   0  0  0  0  0  0  0  0  0  0  0  0
   -7.3326    9.8988   -8.0180 C   0  0  0  0  0  0  0  0  0  0  0  0
   -5.4060   13.8057  -12.2007 S   0  0  0  0  0  0  0  0  0  0  0  0
   -5.9763   10.4855   -7.7248 C   0  0  0  0  0  0  0  0  0  0  0  0
   -5.8692   11.7523   -7.1523 C   0  0  0  0  0  0  0  0  0  0  0  0
   -4.6115   12.3005   -6.8946 C   0  0  0  0  0  0  0  0  0  0  0  0
   -3.4415   11.5837   -7.2014 C   0  0  0  0  0  0  0  0  0  0  0  0
   -3.5677   10.3182   -7.7642 C   0  0  0  0  0  0  0  0  0  0  0  0
   -4.8209    9.7630   -8.0308 C   0  0  0  0  0  0  0  0  0  0  0  0
   -2.1027   12.1584   -6.9334 C   0  0  0  0  0  0  0  0  0  0  0  0
   -1.7604   13.4248   -6.4226 C   0  0  0  0  0  0  0  0  0  0  0  0
   -0.4260   13.4533   -6.3925 N   0  0  0  0  0  0  0  0  0  0  0  0
    0.1594   12.3444   -6.7934 N   0  0  0  0  0  0  0  0  0  0  0  0
   -0.8210   11.5507   -7.1379 C   0  0  0  0  0  0  0  0  0  0  0  0
    0.4194   14.5816   -5.9703 C   0  0  0  0  0  0  0  0  0  0  0  0
   -4.4605   13.4170  -13.2280 O   0  0  0  0  0  0  0  0  0  0  0  0
   -6.3362   14.9020  -12.4291 O   0  0  0  0  0  0  0  0  0  0  0  0
   -4.5495   14.1196  -10.6911 N   0  0  0  0  0  0  0  0  0  0  0  0
   -3.3000   13.4420  -10.3686 C   0  0  0  0  0  0  0  0  0  0  0  0
   -2.0717   13.9935  -11.0748 C   0  0  0  0  0  0  0  0  0  0  0  0
   -2.2627   14.2439   -9.6094 C   0  0  0  0  0  0  0  0  0  0  0  0
   -7.2734   12.9632  -11.8395 H   0  0  0  0  0  0  0  0  0  0  0  0
   -6.0929   12.3066   -9.8631 H   0  0  0  0  0  0  0  0  0  0  0  0
   -8.1517   10.1219  -13.8733 H   0  0  0  0  0  0  0  0  0  0  0  0
   -6.8202   12.2294  -14.0822 H   0  0  0  0  0  0  0  0  0  0  0  0
   -8.0999   10.5589   -7.5873 H   0  0  0  0  0  0  0  0  0  0  0  0
   -7.3945    8.9074   -7.5454 H   0  0  0  0  0  0  0  0  0  0  0  0
   -6.7609   12.3104   -6.9078 H   0  0  0  0  0  0  0  0  0  0  0  0
   -4.5365   13.2843   -6.4555 H   0  0  0  0  0  0  0  0  0  0  0  0
   -2.6780    9.7532   -7.9999 H   0  0  0  0  0  0  0  0  0  0  0  0
   -4.8963    8.7799   -8.4714 H   0  0  0  0  0  0  0  0  0  0  0  0
   -2.4366   14.2100   -6.1184 H   0  0  0  0  0  0  0  0  0  0  0  0
   -0.6813   10.5543   -7.5304 H   0  0  0  0  0  0  0  0  0  0  0  0
    1.4790   14.3012   -6.0627 H   0  0  0  0  0  0  0  0  0  0  0  0
    0.2138   15.4529   -6.6095 H   0  0  0  0  0  0  0  0  0  0  0  0
    0.1971   14.8344   -4.9231 H   0  0  0  0  0  0  0  0  0  0  0  0
   -4.3503   15.0995  -10.6784 H   0  0  0  0  0  0  0  0  0  0  0  0
   -3.3270   12.3575  -10.1868 H   0  0  0  0  0  0  0  0  0  0  0  0
   -1.2811   13.3093  -11.4167 H   0  0  0  0  0  0  0  0  0  0  0  0
   -2.1756   14.8213  -11.7917 H   0  0  0  0  0  0  0  0  0  0  0  0
   -2.5050   15.2560   -9.2530 H   0  0  0  0  0  0  0  0  0  0  0  0
   -1.6106   13.7440   -8.8781 H   0  0  0  0  0  0  0  0  0  0  0  0
  1  2  1  0  0  0  0
  1  4  1  0  0  0  0
  1 11  1  0  0  0  0
  2  6  2  0  0  0  0
  3  4  2  0  0  0  0
  3  5  1  0  0  0  0
  5  6  1  0  0  0  0
  5  9  2  0  0  0  0
  6  7  1  0  0  0  0
  7  8  2  0  0  0  0
  7 10  1  0  0  0  0
  8  9  1  0  0  0  0
 10 12  1  0  0  0  0
 11 24  2  0  0  0  0
 11 25  2  0  0  0  0
 11 26  1  0  0  0  0
 12 13  2  0  0  0  0
 12 17  1  0  0  0  0
 13 14  1  0  0  0  0
 14 15  2  0  0  0  0
 15 16  1  0  0  0  0
 15 18  1  0  0  0  0
 16 17  2  0  0  0  0
 18 19  2  0  0  0  0
 18 22  1  0  0  0  0
 19 20  1  0  0  0  0
 20 21  1  0  0  0  0
 20 23  1  0  0  0  0
 21 22  2  0  0  0  0
 26 27  1  0  0  0  0
 27 28  1  0  0  0  0
 27 29  1  0  0  0  0
 28 29  1  0  0  0  0
  1 30  1  0  0  0  0
  2 31  1  0  0  0  0
  3 32  1  0  0  0  0
  4 33  1  0  0  0  0
 10 34  1  0  0  0  0
 10 35  1  0  0  0  0
 13 36  1  0  0  0  0
 14 37  1  0  0  0  0
 16 38  1  0  0  0  0
 17 39  1  0  0  0  0
 19 40  1  0  0  0  0
 22 41  1  0  0  0  0
 23 42  1  0  0  0  0
 23 43  1  0  0  0  0
 23 44  1  0  0  0  0
 26 45  1  0  0  0  0
 27 46  1  0  0  0  0
 28 47  1  0  0  0  0
 28 48  1  0  0  0  0
 29 49  1  0  0  0  0
 29 50  1  0  0  0  0
M  END
> <Name>
29

> <IC50[uM]>
0.18

$$$$
29
  -OEChem-05192314333D
 Structure written by MMmdl.
 50 54  0     1  0  0  0  0  0999 V2000
   -6.3727   12.3493  -11.9877 C   0  0  0  0  0  0  0  0  0  0  0  0
   -6.5190   11.8167  -10.7261 C   0  0  0  0  0  0  0  0  0  0  0  0
   -7.6919   10.5755  -13.0077 C   0  0  0  0  0  0  0  0  0  0  0  0
   -6.9476   11.7646  -13.1157 C   0  0  0  0  0  0  0  0  0  0  0  0
   -7.8131   10.0080  -11.7494 C   0  0  0  0  0  0  0  0  0  0  0  0
   -7.2399   10.6155  -10.5946 C   0  0  3  0  0  0  0  0  0  0  0  0
   -7.6088    9.7430   -9.5107 C   0  0  0  0  0  0  0  0  0  0  0  0
   -8.2764    8.7286   -9.9647 N   0  0  0  0  0  0  0  0  0  0  0  0
   -8.4188    8.8758  -11.2882 N   0  0  0  0  0  0  0  0  0  0  0  0
   -7.3326    9.8988   -8.0180 C   0  0  0  0  0  0  0  0  0  0  0  0
   -5.4060   13.8057  -12.2007 S   0  0  0  0  0  0  0  0  0  0  0  0
   -5.9763   10.4855   -7.7248 C   0  0  0  0  0  0  0  0  0  0  0  0
   -5.8692   11.7523   -7.1523 C   0  0  0  0  0  0  0  0  0  0  0  0
   -4.6115   12.3005   -6.8946 C   0  0  0  0  0  0  0  0  0  0  0  0
   -3.4415   11.5837   -7.2014 C   0  0  0  0  0  0  0  0  0  0  0  0
   -3.5677   10.3182   -7.7642 C   0  0  0  0  0  0  0  0  0  0  0  0
   -4.8209    9.7630   -8.0308 C   0  0  0  0  0  0  0  0  0  0  0  0
   -2.1027   12.1584   -6.9334 C   0  0  0  0  0  0  0  0  0  0  0  0
   -1.7604   13.4248   -6.4226 C   0  0  0  0  0  0  0  0  0  0  0  0
   -0.4260   13.4533   -6.3925 N   0  0  0  0  0  0  0  0  0  0  0  0
    0.1594   12.3444   -6.7934 N   0  0  0  0  0  0  0  0  0  0  0  0
   -0.8210   11.5507   -7.1379 C   0  0  0  0  0  0  0  0  0  0  0  0
    0.4194   14.5816   -5.9703 C   0  0  0  0  0  0  0  0  0  0  0  0
   -4.4605   13.4170  -13.2280 O   0  0  0  0  0  0  0  0  0  0  0  0
   -6.3362   14.9020  -12.4291 O   0  0  0  0  0  0  0  0  0  0  0  0
   -4.5495   14.1196  -10.6911 N   0  0  0  0  0  0  0  0  0  0  0  0
   -3.3000   13.4420  -10.3686 C   0  0  0  0  0  0  0  0  0  0  0  0
   -2.0717   13.9935  -11.0748 C   0  0  0  0  0  0  0  0  0  0  0  0
   -2.2627   14.2439   -9.6094 C   0  0  0  0  0  0  0  0  0  0  0  0
   -6.0929   12.3066   -9.8631 H   0  0  0  0  0  0  0  0  0  0  0  0
   -8.1517   10.1219  -13.8733 H   0  0  0  0  0  0  0  0  0  0  0  0
   -6.8202   12.2294  -14.0822 H   0  0  0  0  0  0  0  0  0  0  0  0
   -6.3149   10.0400  -10.7471 H   0  0  0  0  0  0  0  0  0  0  0  0
   -8.0999   10.5589   -7.5873 H   0  0  0  0  0  0  0  0  0  0  0  0
   -7.3945    8.9074   -7.5454 H   0  0  0  0  0  0  0  0  0  0  0  0
   -6.7609   12.3104   -6.9078 H   0  0  0  0  0  0  0  0  0  0  0  0
   -4.5365   13.2843   -6.4555 H   0  0  0  0  0  0  0  0  0  0  0  0
   -2.6780    9.7532   -7.9999 H   0  0  0  0  0  0  0  0  0  0  0  0
   -4.8963    8.7799   -8.4714 H   0  0  0  0  0  0  0  0  0  0  0  0
   -2.4366   14.2100   -6.1184 H   0  0  0  0  0  0  0  0  0  0  0  0
   -0.6813   10.5543   -7.5304 H   0  0  0  0  0  0  0  0  0  0  0  0
    1.4790   14.3012   -6.0627 H   0  0  0  0  0  0  0  0  0  0  0  0
    0.2138   15.4529   -6.6095 H   0  0  0  0  0  0  0  0  0  0  0  0
    0.1971   14.8344   -4.9231 H   0  0  0  0  0  0  0  0  0  0  0  0
   -4.3503   15.0995  -10.6784 H   0  0  0  0  0  0  0  0  0  0  0  0
   -3.3270   12.3575  -10.1868 H   0  0  0  0  0  0  0  0  0  0  0  0
   -1.2811   13.3093  -11.4167 H   0  0  0  0  0  0  0  0  0  0  0  0
   -2.1756   14.8213  -11.7917 H   0  0  0  0  0  0  0  0  0  0  0  0
   -2.5050   15.2560   -9.2530 H   0  0  0  0  0  0  0  0  0  0  0  0
   -1.6106   13.7440   -8.8781 H   0  0  0  0  0  0  0  0  0  0  0  0
  1  2  2  0  0  0  0
  1  4  1  0  0  0  0
  1 11  1  0  0  0  0
  2  6  1  0  0  0  0
  3  4  2  0  0  0  0
  3  5  1  0  0  0  0
  5  6  1  0  0  0  0
  5  9  2  0  0  0  0
  6  7  1  0  0  0  0
  7  8  2  0  0  0  0
  7 10  1  0  0  0  0
  8  9  1  0  0  0  0
 10 12  1  0  0  0  0
 11 24  2  0  0  0  0
 11 25  2  0  0  0  0
 11 26  1  0  0  0  0
 12 13  2  0  0  0  0
 12 17  1  0  0  0  0
 13 14  1  0  0  0  0
 14 15  2  0  0  0  0
 15 16  1  0  0  0  0
 15 18  1  0  0  0  0
 16 17  2  0  0  0  0
 18 19  2  0  0  0  0
 18 22  1  0  0  0  0
 19 20  1  0  0  0  0
 20 21  1  0  0  0  0
 20 23  1  0  0  0  0
 21 22  2  0  0  0  0
 26 27  1  0  0  0  0
 27 28  1  0  0  0  0
 27 29  1  0  0  0  0
 28 29  1  0  0  0  0
  2 30  1  0  0  0  0
  3 31  1  0  0  0  0
  4 32  1  0  0  0  0
  6 33  1  0  0  0  0
 10 34  1  0  0  0  0
 10 35  1  0  0  0  0
 13 36  1  0  0  0  0
 14 37  1  0  0  0  0
 16 38  1  0  0  0  0
 17 39  1  0  0  0  0
 19 40  1  0  0  0  0
 22 41  1  0  0  0  0
 23 42  1  0  0  0  0
 23 43  1  0  0  0  0
 23 44  1  0  0  0  0
 26 45  1  0  0  0  0
 27 46  1  0  0  0  0
 28 47  1  0  0  0  0
 28 48  1  0  0  0  0
 29 49  1  0  0  0  0
 29 50  1  0  0  0  0
M  END
> <Name>
29

> <IC50[uM]>
0.18

$$$$
29
  -OEChem-05192314333D
 Structure written by MMmdl.
 50 54  0     0  0  0  0  0  0999 V2000
   -6.3727   12.3493  -11.9877 C   0  0  0  0  0  0  0  0  0  0  0  0
   -6.5190   11.8167  -10.7261 C   0  0  0  0  0  0  0  0  0  0  0  0
   -7.6919   10.5755  -13.0077 C   0  0  0  0  0  0  0  0  0  0  0  0
   -6.9476   11.7646  -13.1157 C   0  0  0  0  0  0  0  0  0  0  0  0
   -7.8131   10.0080  -11.7494 C   0  0  0  0  0  0  0  0  0  0  0  0
   -7.2399   10.6155  -10.5946 C   0  0  0  0  0  0  0  0  0  0  0  0
   -7.6088    9.7430   -9.5107 C   0  0  0  0  0  0  0  0  0  0  0  0
   -8.2764    8.7286   -9.9647 N   0  0  0  0  0  0  0  0  0  0  0  0
   -8.4188    8.8758  -11.2882 N   0  0  0  0  0  0  0  0  0  0  0  0
   -7.3326    9.8988   -8.0180 C   0  0  0  0  0  0  0  0  0  0  0  0
   -5.4060   13.8057  -12.2007 S   0  0  0  0  0  0  0  0  0  0  0  0
   -5.9763   10.4855   -7.7248 C   0  0  0  0  0  0  0  0  0  0  0  0
   -5.8692   11.7523   -7.1523 C   0  0  0  0  0  0  0  0  0  0  0  0
   -4.6115   12.3005   -6.8946 C   0  0  0  0  0  0  0  0  0  0  0  0
   -3.4415   11.5837   -7.2014 C   0  0  0  0  0  0  0  0  0  0  0  0
   -3.5677   10.3182   -7.7642 C   0  0  0  0  0  0  0  0  0  0  0  0
   -4.8209    9.7630   -8.0308 C   0  0  0  0  0  0  0  0  0  0  0  0
   -2.1027   12.1584   -6.9334 C   0  0  0  0  0  0  0  0  0  0  0  0
   -1.7604   13.4248   -6.4226 C   0  0  0  0  0  0  0  0  0  0  0  0
   -0.4260   13.4533   -6.3925 N   0  0  0  0  0  0  0  0  0  0  0  0
    0.1594   12.3444   -6.7934 N   0  0  0  0  0  0  0  0  0  0  0  0
   -0.8210   11.5507   -7.1379 C   0  0  0  0  0  0  0  0  0  0  0  0
    0.4194   14.5816   -5.9703 C   0  0  0  0  0  0  0  0  0  0  0  0
   -4.4605   13.4170  -13.2280 O   0  0  0  0  0  0  0  0  0  0  0  0
   -6.3362   14.9020  -12.4291 O   0  0  0  0  0  0  0  0  0  0  0  0
   -4.5495   14.1196  -10.6911 N   0  0  0  0  0  0  0  0  0  0  0  0
   -3.3000   13.4420  -10.3686 C   0  0  0  0  0  0  0  0  0  0  0  0
   -2.0717   13.9935  -11.0748 C   0  0  0  0  0  0  0  0  0  0  0  0
   -2.2627   14.2439   -9.6094 C   0  0  0  0  0  0  0  0  0  0  0  0
   -6.0929   12.3066   -9.8631 H   0  0  0  0  0  0  0  0  0  0  0  0
   -8.7077   10.7885  -13.3722 H   0  0  0  0  0  0  0  0  0  0  0  0
   -7.2168    9.8291  -13.6613 H   0  0  0  0  0  0  0  0  0  0  0  0
   -6.8202   12.2294  -14.0822 H   0  0  0  0  0  0  0  0  0  0  0  0
   -8.0999   10.5589   -7.5873 H   0  0  0  0  0  0  0  0  0  0  0  0
   -7.3945    8.9074   -7.5454 H   0  0  0  0  0  0  0  0  0  0  0  0
   -6.7609   12.3104   -6.9078 H   0  0  0  0  0  0  0  0  0  0  0  0
   -4.5365   13.2843   -6.4555 H   0  0  0  0  0  0  0  0  0  0  0  0
   -2.6780    9.7532   -7.9999 H   0  0  0  0  0  0  0  0  0  0  0  0
   -4.8963    8.7799   -8.4714 H   0  0  0  0  0  0  0  0  0  0  0  0
   -2.4366   14.2100   -6.1184 H   0  0  0  0  0  0  0  0  0  0  0  0
   -0.6813   10.5543   -7.5304 H   0  0  0  0  0  0  0  0  0  0  0  0
    1.4790   14.3012   -6.0627 H   0  0  0  0  0  0  0  0  0  0  0  0
    0.2138   15.4529   -6.6095 H   0  0  0  0  0  0  0  0  0  0  0  0
    0.1971   14.8344   -4.9231 H   0  0  0  0  0  0  0  0  0  0  0  0
   -4.3503   15.0995  -10.6784 H   0  0  0  0  0  0  0  0  0  0  0  0
   -3.3270   12.3575  -10.1868 H   0  0  0  0  0  0  0  0  0  0  0  0
   -1.2811   13.3093  -11.4167 H   0  0  0  0  0  0  0  0  0  0  0  0
   -2.1756   14.8213  -11.7917 H   0  0  0  0  0  0  0  0  0  0  0  0
   -2.5050   15.2560   -9.2530 H   0  0  0  0  0  0  0  0  0  0  0  0
   -1.6106   13.7440   -8.8781 H   0  0  0  0  0  0  0  0  0  0  0  0
  1  2  1  0  0  0  0
  1  4  2  0  0  0  0
  1 11  1  0  0  0  0
  2  6  2  0  0  0  0
  3  4  1  0  0  0  0
  3  5  1  0  0  0  0
  5  6  1  0  0  0  0
  5  9  2  0  0  0  0
  6  7  1  0  0  0  0
  7  8  2  0  0  0  0
  7 10  1  0  0  0  0
  8  9  1  0  0  0  0
 10 12  1  0  0  0  0
 11 24  2  0  0  0  0
 11 25  2  0  0  0  0
 11 26  1  0  0  0  0
 12 13  2  0  0  0  0
 12 17  1  0  0  0  0
 13 14  1  0  0  0  0
 14 15  2  0  0  0  0
 15 16  1  0  0  0  0
 15 18  1  0  0  0  0
 16 17  2  0  0  0  0
 18 19  2  0  0  0  0
 18 22  1  0  0  0  0
 19 20  1  0  0  0  0
 20 21  1  0  0  0  0
 20 23  1  0  0  0  0
 21 22  2  0  0  0  0
 26 27  1  0  0  0  0
 27 28  1  0  0  0  0
 27 29  1  0  0  0  0
 28 29  1  0  0  0  0
  2 30  1  0  0  0  0
  3 31  1  0  0  0  0
  3 32  1  0  0  0  0
  4 33  1  0  0  0  0
 10 34  1  0  0  0  0
 10 35  1  0  0  0  0
 13 36  1  0  0  0  0
 14 37  1  0  0  0  0
 16 38  1  0  0  0  0
 17 39  1  0  0  0  0
 19 40  1  0  0  0  0
 22 41  1  0  0  0  0
 23 42  1  0  0  0  0
 23 43  1  0  0  0  0
 23 44  1  0  0  0  0
 26 45  1  0  0  0  0
 27 46  1  0  0  0  0
 28 47  1  0  0  0  0
 28 48  1  0  0  0  0
 29 49  1  0  0  0  0
 29 50  1  0  0  0  0
M  END
> <Name>
29

> <IC50[uM]>
0.18

$$$$
29
  -OEChem-05192314333D
 Structure written by MMmdl.
 50 54  0     0  0  0  0  0  0999 V2000
   -6.3727   12.3493  -11.9877 C   0  0  0  0  0  0  0  0  0  0  0  0
   -6.5190   11.8167  -10.7261 C   0  0  0  0  0  0  0  0  0  0  0  0
   -7.6919   10.5755  -13.0077 C   0  0  0  0  0  0  0  0  0  0  0  0
   -6.9476   11.7646  -13.1157 C   0  0  0  0  0  0  0  0  0  0  0  0
   -7.8131   10.0080  -11.7494 C   0  0  0  0  0  0  0  0  0  0  0  0
   -7.2399   10.6155  -10.5946 C   0  0  0  0  0  0  0  0  0  0  0  0
   -7.6088    9.7430   -9.5107 C   0  0  0  0  0  0  0  0  0  0  0  0
   -8.2764    8.7286   -9.9647 N   0  0  0  0  0  0  0  0  0  0  0  0
   -8.4188    8.8758  -11.2882 N   0  0  0  0  0  0  0  0  0  0  0  0
   -7.3326    9.8988   -8.0180 C   0  0  0  0  0  0  0  0  0  0  0  0
   -5.4060   13.8057  -12.2007 S   0  0  0  0  0  0  0  0  0  0  0  0
   -5.9763   10.4855   -7.7248 C   0  0  0  0  0  0  0  0  0  0  0  0
   -5.8692   11.7523   -7.1523 C   0  0  0  0  0  0  0  0  0  0  0  0
   -4.6115   12.3005   -6.8946 C   0  0  0  0  0  0  0  0  0  0  0  0
   -3.4415   11.5837   -7.2014 C   0  0  0  0  0  0  0  0  0  0  0  0
   -3.5677   10.3182   -7.7642 C   0  0  0  0  0  0  0  0  0  0  0  0
   -4.8209    9.7630   -8.0308 C   0  0  0  0  0  0  0  0  0  0  0  0
   -2.1027   12.1584   -6.9334 C   0  0  0  0  0  0  0  0  0  0  0  0
   -1.7604   13.4248   -6.4226 C   0  0  0  0  0  0  0  0  0  0  0  0
   -0.4260   13.4533   -6.3925 N   0  0  0  0  0  0  0  0  0  0  0  0
    0.1594   12.3444   -6.7934 N   0  0  0  0  0  0  0  0  0  0  0  0
   -0.8210   11.5507   -7.1379 C   0  0  0  0  0  0  0  0  0  0  0  0
    0.4194   14.5816   -5.9703 C   0  0  0  0  0  0  0  0  0  0  0  0
   -4.4605   13.4170  -13.2280 O   0  0  0  0  0  0  0  0  0  0  0  0
   -6.3362   14.9020  -12.4291 O   0  0  0  0  0  0  0  0  0  0  0  0
   -4.5495   14.1196  -10.6911 N   0  0  0  0  0  0  0  0  0  0  0  0
   -3.3000   13.4420  -10.3686 C   0  0  0  0  0  0  0  0  0  0  0  0
   -2.0717   13.9935  -11.0748 C   0  0  0  0  0  0  0  0  0  0  0  0
   -2.2627   14.2439   -9.6094 C   0  0  0  0  0  0  0  0  0  0  0  0
   -6.0929   12.3066   -9.8631 H   0  0  0  0  0  0  0  0  0  0  0  0
   -8.1517   10.1219  -13.8733 H   0  0  0  0  0  0  0  0  0  0  0  0
   -6.8202   12.2294  -14.0822 H   0  0  0  0  0  0  0  0  0  0  0  0
   -8.0377    9.6171   -7.2499 H   0  0  0  0  0  0  0  0  0  0  0  0
   -5.9957   10.0327   -6.7225 H   0  0  0  0  0  0  0  0  0  0  0  0
   -6.7609   12.3104   -6.9078 H   0  0  0  0  0  0  0  0  0  0  0  0
   -4.5365   13.2843   -6.4555 H   0  0  0  0  0  0  0  0  0  0  0  0
   -3.4318   12.0299   -8.2068 H   0  0  0  0  0  0  0  0  0  0  0  0
   -2.6780    9.7532   -7.9999 H   0  0  0  0  0  0  0  0  0  0  0  0
   -4.8963    8.7799   -8.4714 H   0  0  0  0  0  0  0  0  0  0  0  0
   -2.4366   14.2100   -6.1184 H   0  0  0  0  0  0  0  0  0  0  0  0
   -0.6813   10.5543   -7.5304 H   0  0  0  0  0  0  0  0  0  0  0  0
    1.4790   14.3012   -6.0627 H   0  0  0  0  0  0  0  0  0  0  0  0
    0.2138   15.4529   -6.6095 H   0  0  0  0  0  0  0  0  0  0  0  0
    0.1971   14.8344   -4.9231 H   0  0  0  0  0  0  0  0  0  0  0  0
   -4.3503   15.0995  -10.6784 H   0  0  0  0  0  0  0  0  0  0  0  0
   -3.3270   12.3575  -10.1868 H   0  0  0  0  0  0  0  0  0  0  0  0
   -1.2811   13.3093  -11.4167 H   0  0  0  0  0  0  0  0  0  0  0  0
   -2.1756   14.8213  -11.7917 H   0  0  0  0  0  0  0  0  0  0  0  0
   -2.5050   15.2560   -9.2530 H   0  0  0  0  0  0  0  0  0  0  0  0
   -1.6106   13.7440   -8.8781 H   0  0  0  0  0  0  0  0  0  0  0  0
  1  2  2  0  0  0  0
  1  4  1  0  0  0  0
  1 11  1  0  0  0  0
  2  6  1  0  0  0  0
  3  4  2  0  0  0  0
  3  5  1  0  0  0  0
  5  6  2  0  0  0  0
  5  9  1  0  0  0  0
  6  7  1  0  0  0  0
  7  8  1  0  0  0  0
  7 10  2  3  0  0  0
  8  9  2  0  0  0  0
 10 12  1  0  0  0  0
 11 24  2  0  0  0  0
 11 25  2  0  0  0  0
 11 26  1  0  0  0  0
 12 13  1  0  0  0  0
 12 17  1  0  0  0  0
 13 14  2  0  0  0  0
 14 15  1  0  0  0  0
 15 16  1  0  0  0  0
 15 18  1  0  0  0  0
 16 17  2  0  0  0  0
 18 19  2  0  0  0  0
 18 22  1  0  0  0  0
 19 20  1  0  0  0  0
 20 21  1  0  0  0  0
 20 23  1  0  0  0  0
 21 22  2  0  0  0  0
 26 27  1  0  0  0  0
 27 28  1  0  0  0  0
 27 29  1  0  0  0  0
 28 29  1  0  0  0  0
  2 30  1  0  0  0  0
  3 31  1  0  0  0  0
  4 32  1  0  0  0  0
 10 33  1  0  0  0  0
 12 34  1  0  0  0  0
 13 35  1  0  0  0  0
 14 36  1  0  0  0  0
 15 37  1  0  0  0  0
 16 38  1  0  0  0  0
 17 39  1  0  0  0  0
 19 40  1  0  0  0  0
 22 41  1  0  0  0  0
 23 42  1  0  0  0  0
 23 43  1  0  0  0  0
 23 44  1  0  0  0  0
 26 45  1  0  0  0  0
 27 46  1  0  0  0  0
 28 47  1  0  0  0  0
 28 48  1  0  0  0  0
 29 49  1  0  0  0  0
 29 50  1  0  0  0  0
M  END
> <Name>
29

> <IC50[uM]>
0.18

$$$$
29
  -OEChem-05192314333D
 Structure written by MMmdl.
 50 54  0     1  0  0  0  0  0999 V2000
   -6.3727   12.3493  -11.9877 C   0  0  0  0  0  0  0  0  0  0  0  0
   -6.5190   11.8167  -10.7261 C   0  0  0  0  0  0  0  0  0  0  0  0
   -7.6919   10.5755  -13.0077 C   0  0  0  0  0  0  0  0  0  0  0  0
   -6.9476   11.7646  -13.1157 C   0  0  0  0  0  0  0  0  0  0  0  0
   -7.8131   10.0080  -11.7494 C   0  0  0  0  0  0  0  0  0  0  0  0
   -7.2399   10.6155  -10.5946 C   0  0  0  0  0  0  0  0  0  0  0  0
   -7.6088    9.7430   -9.5107 C   0  0  3  0  0  0  0  0  0  0  0  0
   -8.2764    8.7286   -9.9647 N   0  0  0  0  0  0  0  0  0  0  0  0
   -8.4188    8.8758  -11.2882 N   0  0  0  0  0  0  0  0  0  0  0  0
   -7.3326    9.8988   -8.0180 C   0  0  0  0  0  0  0  0  0  0  0  0
   -5.4060   13.8057  -12.2007 S   0  0  0  0  0  0  0  0  0  0  0  0
   -5.9763   10.4855   -7.7248 C   0  0  0  0  0  0  0  0  0  0  0  0
   -5.8692   11.7523   -7.1523 C   0  0  0  0  0  0  0  0  0  0  0  0
   -4.6115   12.3005   -6.8946 C   0  0  0  0  0  0  0  0  0  0  0  0
   -3.4415   11.5837   -7.2014 C   0  0  0  0  0  0  0  0  0  0  0  0
   -3.5677   10.3182   -7.7642 C   0  0  0  0  0  0  0  0  0  0  0  0
   -4.8209    9.7630   -8.0308 C   0  0  0  0  0  0  0  0  0  0  0  0
   -2.1027   12.1584   -6.9334 C   0  0  0  0  0  0  0  0  0  0  0  0
   -1.7604   13.4248   -6.4226 C   0  0  0  0  0  0  0  0  0  0  0  0
   -0.4260   13.4533   -6.3925 N   0  0  0  0  0  0  0  0  0  0  0  0
    0.1594   12.3444   -6.7934 N   0  0  0  0  0  0  0  0  0  0  0  0
   -0.8210   11.5507   -7.1379 C   0  0  0  0  0  0  0  0  0  0  0  0
    0.4194   14.5816   -5.9703 C   0  0  0  0  0  0  0  0  0  0  0  0
   -4.4605   13.4170  -13.2280 O   0  0  0  0  0  0  0  0  0  0  0  0
   -6.3362   14.9020  -12.4291 O   0  0  0  0  0  0  0  0  0  0  0  0
   -4.5495   14.1196  -10.6911 N   0  0  0  0  0  0  0  0  0  0  0  0
   -3.3000   13.4420  -10.3686 C   0  0  0  0  0  0  0  0  0  0  0  0
   -2.0717   13.9935  -11.0748 C   0  0  0  0  0  0  0  0  0  0  0  0
   -2.2627   14.2439   -9.6094 C   0  0  0  0  0  0  0  0  0  0  0  0
   -6.0929   12.3066   -9.8631 H   0  0  0  0  0  0  0  0  0  0  0  0
   -8.1517   10.1219  -13.8733 H   0  0  0  0  0  0  0  0  0  0  0  0
   -6.8202   12.2294  -14.0822 H   0  0  0  0  0  0  0  0  0  0  0  0
   -6.6681    9.1858   -9.6318 H   0  0  0  0  0  0  0  0  0  0  0  0
   -8.0377    9.6171   -7.2499 H   0  0  0  0  0  0  0  0  0  0  0  0
   -6.7609   12.3104   -6.9078 H   0  0  0  0  0  0  0  0  0  0  0  0
   -4.5365   13.2843   -6.4555 H   0  0  0  0  0  0  0  0  0  0  0  0
   -3.4318   12.0299   -8.2068 H   0  0  0  0  0  0  0  0  0  0  0  0
   -2.6780    9.7532   -7.9999 H   0  0  0  0  0  0  0  0  0  0  0  0
   -4.8963    8.7799   -8.4714 H   0  0  0  0  0  0  0  0  0  0  0  0
   -2.4366   14.2100   -6.1184 H   0  0  0  0  0  0  0  0  0  0  0  0
   -0.6813   10.5543   -7.5304 H   0  0  0  0  0  0  0  0  0  0  0  0
    1.4790   14.3012   -6.0627 H   0  0  0  0  0  0  0  0  0  0  0  0
    0.2138   15.4529   -6.6095 H   0  0  0  0  0  0  0  0  0  0  0  0
    0.1971   14.8344   -4.9231 H   0  0  0  0  0  0  0  0  0  0  0  0
   -4.3503   15.0995  -10.6784 H   0  0  0  0  0  0  0  0  0  0  0  0
   -3.3270   12.3575  -10.1868 H   0  0  0  0  0  0  0  0  0  0  0  0
   -1.2811   13.3093  -11.4167 H   0  0  0  0  0  0  0  0  0  0  0  0
   -2.1756   14.8213  -11.7917 H   0  0  0  0  0  0  0  0  0  0  0  0
   -2.5050   15.2560   -9.2530 H   0  0  0  0  0  0  0  0  0  0  0  0
   -1.6106   13.7440   -8.8781 H   0  0  0  0  0  0  0  0  0  0  0  0
  1  2  2  0  0  0  0
  1  4  1  0  0  0  0
  1 11  1  0  0  0  0
  2  6  1  0  0  0  0
  3  4  2  0  0  0  0
  3  5  1  0  0  0  0
  5  6  2  0  0  0  0
  5  9  1  0  0  0  0
  6  7  1  0  0  0  0
  7  8  1  0  0  0  0
  7 10  1  0  0  0  0
  8  9  2  0  0  0  0
 10 12  2  0  0  0  0
 11 24  2  0  0  0  0
 11 25  2  0  0  0  0
 11 26  1  0  0  0  0
 12 13  1  0  0  0  0
 12 17  1  0  0  0  0
 13 14  2  0  0  0  0
 14 15  1  0  0  0  0
 15 16  1  0  0  0  0
 15 18  1  0  0  0  0
 16 17  2  0  0  0  0
 18 19  2  0  0  0  0
 18 22  1  0  0  0  0
 19 20  1  0  0  0  0
 20 21  1  0  0  0  0
 20 23  1  0  0  0  0
 21 22  2  0  0  0  0
 26 27  1  0  0  0  0
 27 28  1  0  0  0  0
 27 29  1  0  0  0  0
 28 29  1  0  0  0  0
  2 30  1  0  0  0  0
  3 31  1  0  0  0  0
  4 32  1  0  0  0  0
  7 33  1  0  0  0  0
 10 34  1  0  0  0  0
 13 35  1  0  0  0  0
 14 36  1  0  0  0  0
 15 37  1  0  0  0  0
 16 38  1  0  0  0  0
 17 39  1  0  0  0  0
 19 40  1  0  0  0  0
 22 41  1  0  0  0  0
 23 42  1  0  0  0  0
 23 43  1  0  0  0  0
 23 44  1  0  0  0  0
 26 45  1  0  0  0  0
 27 46  1  0  0  0  0
 28 47  1  0  0  0  0
 28 48  1  0  0  0  0
 29 49  1  0  0  0  0
 29 50  1  0  0  0  0
M  END
> <Name>
29

> <IC50[uM]>
0.18

$$$$
29
  -OEChem-05192314333D
 Structure written by MMmdl.
 50 54  0     1  0  0  0  0  0999 V2000
   -6.3727   12.3493  -11.9877 C   0  0  3  0  0  0  0  0  0  0  0  0
   -6.5190   11.8167  -10.7261 C   0  0  0  0  0  0  0  0  0  0  0  0
   -7.6919   10.5755  -13.0077 C   0  0  0  0  0  0  0  0  0  0  0  0
   -6.9476   11.7646  -13.1157 C   0  0  0  0  0  0  0  0  0  0  0  0
   -7.8131   10.0080  -11.7494 C   0  0  3  0  0  0  0  0  0  0  0  0
   -7.2399   10.6155  -10.5946 C   0  0  0  0  0  0  0  0  0  0  0  0
   -7.6088    9.7430   -9.5107 C   0  0  0  0  0  0  0  0  0  0  0  0
   -8.2764    8.7286   -9.9647 N   0  0  0  0  0  0  0  0  0  0  0  0
   -8.4188    8.8758  -11.2882 N   0  0  0  0  0  0  0  0  0  0  0  0
   -7.3326    9.8988   -8.0180 C   0  0  0  0  0  0  0  0  0  0  0  0
   -5.4060   13.8057  -12.2007 S   0  0  0  0  0  0  0  0  0  0  0  0
   -5.9763   10.4855   -7.7248 C   0  0  0  0  0  0  0  0  0  0  0  0
   -5.8692   11.7523   -7.1523 C   0  0  0  0  0  0  0  0  0  0  0  0
   -4.6115   12.3005   -6.8946 C   0  0  0  0  0  0  0  0  0  0  0  0
   -3.4415   11.5837   -7.2014 C   0  0  0  0  0  0  0  0  0  0  0  0
   -3.5677   10.3182   -7.7642 C   0  0  0  0  0  0  0  0  0  0  0  0
   -4.8209    9.7630   -8.0308 C   0  0  0  0  0  0  0  0  0  0  0  0
   -2.1027   12.1584   -6.9334 C   0  0  0  0  0  0  0  0  0  0  0  0
   -1.7604   13.4248   -6.4226 C   0  0  0  0  0  0  0  0  0  0  0  0
   -0.4260   13.4533   -6.3925 N   0  0  0  0  0  0  0  0  0  0  0  0
    0.1594   12.3444   -6.7934 N   0  0  0  0  0  0  0  0  0  0  0  0
   -0.8210   11.5507   -7.1379 C   0  0  0  0  0  0  0  0  0  0  0  0
    0.4194   14.5816   -5.9703 C   0  0  0  0  0  0  0  0  0  0  0  0
   -4.4605   13.4170  -13.2280 O   0  0  0  0  0  0  0  0  0  0  0  0
   -6.3362   14.9020  -12.4291 O   0  0  0  0  0  0  0  0  0  0  0  0
   -4.5495   14.1196  -10.6911 N   0  0  0  0  0  0  0  0  0  0  0  0
   -3.3000   13.4420  -10.3686 C   0  0  0  0  0  0  0  0  0  0  0  0
   -2.0717   13.9935  -11.0748 C   0  0  0  0  0  0  0  0  0  0  0  0
   -2.2627   14.2439   -9.6094 C   0  0  0  0  0  0  0  0  0  0  0  0
   -7.2734   12.9632  -11.8395 H   0  0  0  0  0  0  0  0  0  0  0  0
   -6.0929   12.3066   -9.8631 H   0  0  0  0  0  0  0  0  0  0  0  0
   -8.1517   10.1219  -13.8733 H   0  0  0  0  0  0  0  0  0  0  0  0
   -6.8202   12.2294  -14.0822 H   0  0  0  0  0  0  0  0  0  0  0  0
   -6.8834    9.4437  -11.9142 H   0  0  0  0  0  0  0  0  0  0  0  0
   -8.0377    9.6171   -7.2499 H   0  0  0  0  0  0  0  0  0  0  0  0
   -6.7609   12.3104   -6.9078 H   0  0  0  0  0  0  0  0  0  0  0  0
   -4.5365   13.2843   -6.4555 H   0  0  0  0  0  0  0  0  0  0  0  0
   -2.6780    9.7532   -7.9999 H   0  0  0  0  0  0  0  0  0  0  0  0
   -4.8963    8.7799   -8.4714 H   0  0  0  0  0  0  0  0  0  0  0  0
   -2.4366   14.2100   -6.1184 H   0  0  0  0  0  0  0  0  0  0  0  0
   -0.6813   10.5543   -7.5304 H   0  0  0  0  0  0  0  0  0  0  0  0
    1.4790   14.3012   -6.0627 H   0  0  0  0  0  0  0  0  0  0  0  0
    0.2138   15.4529   -6.6095 H   0  0  0  0  0  0  0  0  0  0  0  0
    0.1971   14.8344   -4.9231 H   0  0  0  0  0  0  0  0  0  0  0  0
   -4.3503   15.0995  -10.6784 H   0  0  0  0  0  0  0  0  0  0  0  0
   -3.3270   12.3575  -10.1868 H   0  0  0  0  0  0  0  0  0  0  0  0
   -1.2811   13.3093  -11.4167 H   0  0  0  0  0  0  0  0  0  0  0  0
   -2.1756   14.8213  -11.7917 H   0  0  0  0  0  0  0  0  0  0  0  0
   -2.5050   15.2560   -9.2530 H   0  0  0  0  0  0  0  0  0  0  0  0
   -1.6106   13.7440   -8.8781 H   0  0  0  0  0  0  0  0  0  0  0  0
  1  2  1  0  0  0  0
  1  4  1  0  0  0  0
  1 11  1  0  0  0  0
  2  6  2  0  0  0  0
  3  4  2  0  0  0  0
  3  5  1  0  0  0  0
  5  6  1  0  0  0  0
  5  9  1  0  0  0  0
  6  7  1  0  0  0  0
  7  8  1  0  0  0  0
  7 10  2  3  0  0  0
  8  9  2  0  0  0  0
 10 12  1  0  0  0  0
 11 24  2  0  0  0  0
 11 25  2  0  0  0  0
 11 26  1  0  0  0  0
 12 13  2  0  0  0  0
 12 17  1  0  0  0  0
 13 14  1  0  0  0  0
 14 15  2  0  0  0  0
 15 16  1  0  0  0  0
 15 18  1  0  0  0  0
 16 17  2  0  0  0  0
 18 19  2  0  0  0  0
 18 22  1  0  0  0  0
 19 20  1  0  0  0  0
 20 21  1  0  0  0  0
 20 23  1  0  0  0  0
 21 22  2  0  0  0  0
 26 27  1  0  0  0  0
 27 28  1  0  0  0  0
 27 29  1  0  0  0  0
 28 29  1  0  0  0  0
  1 30  1  0  0  0  0
  2 31  1  0  0  0  0
  3 32  1  0  0  0  0
  4 33  1  0  0  0  0
  5 34  1  0  0  0  0
 10 35  1  0  0  0  0
 13 36  1  0  0  0  0
 14 37  1  0  0  0  0
 16 38  1  0  0  0  0
 17 39  1  0  0  0  0
 19 40  1  0  0  0  0
 22 41  1  0  0  0  0
 23 42  1  0  0  0  0
 23 43  1  0  0  0  0
 23 44  1  0  0  0  0
 26 45  1  0  0  0  0
 27 46  1  0  0  0  0
 28 47  1  0  0  0  0
 28 48  1  0  0  0  0
 29 49  1  0  0  0  0
 29 50  1  0  0  0  0
M  END
> <Name>
29

> <IC50[uM]>
0.18

$$$$
29
  -OEChem-05192314333D
 Structure written by MMmdl.
 50 54  0     1  0  0  0  0  0999 V2000
   -6.3727   12.3493  -11.9877 C   0  0  0  0  0  0  0  0  0  0  0  0
   -6.5190   11.8167  -10.7261 C   0  0  0  0  0  0  0  0  0  0  0  0
   -7.6919   10.5755  -13.0077 C   0  0  0  0  0  0  0  0  0  0  0  0
   -6.9476   11.7646  -13.1157 C   0  0  0  0  0  0  0  0  0  0  0  0
   -7.8131   10.0080  -11.7494 C   0  0  3  0  0  0  0  0  0  0  0  0
   -7.2399   10.6155  -10.5946 C   0  0  3  0  0  0  0  0  0  0  0  0
   -7.6088    9.7430   -9.5107 C   0  0  0  0  0  0  0  0  0  0  0  0
   -8.2764    8.7286   -9.9647 N   0  0  0  0  0  0  0  0  0  0  0  0
   -8.4188    8.8758  -11.2882 N   0  0  0  0  0  0  0  0  0  0  0  0
   -7.3326    9.8988   -8.0180 C   0  0  0  0  0  0  0  0  0  0  0  0
   -5.4060   13.8057  -12.2007 S   0  0  0  0  0  0  0  0  0  0  0  0
   -5.9763   10.4855   -7.7248 C   0  0  0  0  0  0  0  0  0  0  0  0
   -5.8692   11.7523   -7.1523 C   0  0  0  0  0  0  0  0  0  0  0  0
   -4.6115   12.3005   -6.8946 C   0  0  0  0  0  0  0  0  0  0  0  0
   -3.4415   11.5837   -7.2014 C   0  0  0  0  0  0  0  0  0  0  0  0
   -3.5677   10.3182   -7.7642 C   0  0  0  0  0  0  0  0  0  0  0  0
   -4.8209    9.7630   -8.0308 C   0  0  0  0  0  0  0  0  0  0  0  0
   -2.1027   12.1584   -6.9334 C   0  0  0  0  0  0  0  0  0  0  0  0
   -1.7604   13.4248   -6.4226 C   0  0  0  0  0  0  0  0  0  0  0  0
   -0.4260   13.4533   -6.3925 N   0  0  0  0  0  0  0  0  0  0  0  0
    0.1594   12.3444   -6.7934 N   0  0  0  0  0  0  0  0  0  0  0  0
   -0.8210   11.5507   -7.1379 C   0  0  0  0  0  0  0  0  0  0  0  0
    0.4194   14.5816   -5.9703 C   0  0  0  0  0  0  0  0  0  0  0  0
   -4.4605   13.4170  -13.2280 O   0  0  0  0  0  0  0  0  0  0  0  0
   -6.3362   14.9020  -12.4291 O   0  0  0  0  0  0  0  0  0  0  0  0
   -4.5495   14.1196  -10.6911 N   0  0  0  0  0  0  0  0  0  0  0  0
   -3.3000   13.4420  -10.3686 C   0  0  0  0  0  0  0  0  0  0  0  0
   -2.0717   13.9935  -11.0748 C   0  0  0  0  0  0  0  0  0  0  0  0
   -2.2627   14.2439   -9.6094 C   0  0  0  0  0  0  0  0  0  0  0  0
   -6.0929   12.3066   -9.8631 H   0  0  0  0  0  0  0  0  0  0  0  0
   -8.1517   10.1219  -13.8733 H   0  0  0  0  0  0  0  0  0  0  0  0
   -6.8202   12.2294  -14.0822 H   0  0  0  0  0  0  0  0  0  0  0  0
   -6.8834    9.4437  -11.9142 H   0  0  0  0  0  0  0  0  0  0  0  0
   -6.3149   10.0400  -10.7471 H   0  0  0  0  0  0  0  0  0  0  0  0
   -8.0377    9.6171   -7.2499 H   0  0  0  0  0  0  0  0  0  0  0  0
   -6.7609   12.3104   -6.9078 H   0  0  0  0  0  0  0  0  0  0  0  0
   -4.5365   13.2843   -6.4555 H   0  0  0  0  0  0  0  0  0  0  0  0
   -2.6780    9.7532   -7.9999 H   0  0  0  0  0  0  0  0  0  0  0  0
   -4.8963    8.7799   -8.4714 H   0  0  0  0  0  0  0  0  0  0  0  0
   -2.4366   14.2100   -6.1184 H   0  0  0  0  0  0  0  0  0  0  0  0
   -0.6813   10.5543   -7.5304 H   0  0  0  0  0  0  0  0  0  0  0  0
    1.4790   14.3012   -6.0627 H   0  0  0  0  0  0  0  0  0  0  0  0
    0.2138   15.4529   -6.6095 H   0  0  0  0  0  0  0  0  0  0  0  0
    0.1971   14.8344   -4.9231 H   0  0  0  0  0  0  0  0  0  0  0  0
   -4.3503   15.0995  -10.6784 H   0  0  0  0  0  0  0  0  0  0  0  0
   -3.3270   12.3575  -10.1868 H   0  0  0  0  0  0  0  0  0  0  0  0
   -1.2811   13.3093  -11.4167 H   0  0  0  0  0  0  0  0  0  0  0  0
   -2.1756   14.8213  -11.7917 H   0  0  0  0  0  0  0  0  0  0  0  0
   -2.5050   15.2560   -9.2530 H   0  0  0  0  0  0  0  0  0  0  0  0
   -1.6106   13.7440   -8.8781 H   0  0  0  0  0  0  0  0  0  0  0  0
  1  2  2  0  0  0  0
  1  4  1  0  0  0  0
  1 11  1  0  0  0  0
  2  6  1  0  0  0  0
  3  4  2  0  0  0  0
  3  5  1  0  0  0  0
  5  6  1  0  0  0  0
  5  9  1  0  0  0  0
  6  7  1  0  0  0  0
  7  8  1  0  0  0  0
  7 10  2  3  0  0  0
  8  9  2  0  0  0  0
 10 12  1  0  0  0  0
 11 24  2  0  0  0  0
 11 25  2  0  0  0  0
 11 26  1  0  0  0  0
 12 13  2  0  0  0  0
 12 17  1  0  0  0  0
 13 14  1  0  0  0  0
 14 15  2  0  0  0  0
 15 16  1  0  0  0  0
 15 18  1  0  0  0  0
 16 17  2  0  0  0  0
 18 19  2  0  0  0  0
 18 22  1  0  0  0  0
 19 20  1  0  0  0  0
 20 21  1  0  0  0  0
 20 23  1  0  0  0  0
 21 22  2  0  0  0  0
 26 27  1  0  0  0  0
 27 28  1  0  0  0  0
 27 29  1  0  0  0  0
 28 29  1  0  0  0  0
  2 30  1  0  0  0  0
  3 31  1  0  0  0  0
  4 32  1  0  0  0  0
  5 33  1  0  0  0  0
  6 34  1  0  0  0  0
 10 35  1  0  0  0  0
 13 36  1  0  0  0  0
 14 37  1  0  0  0  0
 16 38  1  0  0  0  0
 17 39  1  0  0  0  0
 19 40  1  0  0  0  0
 22 41  1  0  0  0  0
 23 42  1  0  0  0  0
 23 43  1  0  0  0  0
 23 44  1  0  0  0  0
 26 45  1  0  0  0  0
 27 46  1  0  0  0  0
 28 47  1  0  0  0  0
 28 48  1  0  0  0  0
 29 49  1  0  0  0  0
 29 50  1  0  0  0  0
M  END
> <Name>
29

> <IC50[uM]>
0.18

$$$$
29
  -OEChem-05192314333D
 Structure written by MMmdl.
 50 54  0     1  0  0  0  0  0999 V2000
   -6.3727   12.3493  -11.9877 C   0  0  0  0  0  0  0  0  0  0  0  0
   -6.5190   11.8167  -10.7261 C   0  0  0  0  0  0  0  0  0  0  0  0
   -7.6919   10.5755  -13.0077 C   0  0  0  0  0  0  0  0  0  0  0  0
   -6.9476   11.7646  -13.1157 C   0  0  0  0  0  0  0  0  0  0  0  0
   -7.8131   10.0080  -11.7494 C   0  0  3  0  0  0  0  0  0  0  0  0
   -7.2399   10.6155  -10.5946 C   0  0  0  0  0  0  0  0  0  0  0  0
   -7.6088    9.7430   -9.5107 C   0  0  0  0  0  0  0  0  0  0  0  0
   -8.2764    8.7286   -9.9647 N   0  0  0  0  0  0  0  0  0  0  0  0
   -8.4188    8.8758  -11.2882 N   0  0  0  0  0  0  0  0  0  0  0  0
   -7.3326    9.8988   -8.0180 C   0  0  0  0  0  0  0  0  0  0  0  0
   -5.4060   13.8057  -12.2007 S   0  0  0  0  0  0  0  0  0  0  0  0
   -5.9763   10.4855   -7.7248 C   0  0  0  0  0  0  0  0  0  0  0  0
   -5.8692   11.7523   -7.1523 C   0  0  0  0  0  0  0  0  0  0  0  0
   -4.6115   12.3005   -6.8946 C   0  0  0  0  0  0  0  0  0  0  0  0
   -3.4415   11.5837   -7.2014 C   0  0  0  0  0  0  0  0  0  0  0  0
   -3.5677   10.3182   -7.7642 C   0  0  0  0  0  0  0  0  0  0  0  0
   -4.8209    9.7630   -8.0308 C   0  0  0  0  0  0  0  0  0  0  0  0
   -2.1027   12.1584   -6.9334 C   0  0  0  0  0  0  0  0  0  0  0  0
   -1.7604   13.4248   -6.4226 C   0  0  0  0  0  0  0  0  0  0  0  0
   -0.4260   13.4533   -6.3925 N   0  0  0  0  0  0  0  0  0  0  0  0
    0.1594   12.3444   -6.7934 N   0  0  0  0  0  0  0  0  0  0  0  0
   -0.8210   11.5507   -7.1379 C   0  0  0  0  0  0  0  0  0  0  0  0
    0.4194   14.5816   -5.9703 C   0  0  0  0  0  0  0  0  0  0  0  0
   -4.4605   13.4170  -13.2280 O   0  0  0  0  0  0  0  0  0  0  0  0
   -6.3362   14.9020  -12.4291 O   0  0  0  0  0  0  0  0  0  0  0  0
   -4.5495   14.1196  -10.6911 N   0  0  0  0  0  0  0  0  0  0  0  0
   -3.3000   13.4420  -10.3686 C   0  0  0  0  0  0  0  0  0  0  0  0
   -2.0717   13.9935  -11.0748 C   0  0  0  0  0  0  0  0  0  0  0  0
   -2.2627   14.2439   -9.6094 C   0  0  0  0  0  0  0  0  0  0  0  0
   -6.0929   12.3066   -9.8631 H   0  0  0  0  0  0  0  0  0  0  0  0
   -8.7077   10.7885  -13.3722 H   0  0  0  0  0  0  0  0  0  0  0  0
   -7.2168    9.8291  -13.6613 H   0  0  0  0  0  0  0  0  0  0  0  0
   -6.8202   12.2294  -14.0822 H   0  0  0  0  0  0  0  0  0  0  0  0
   -6.8834    9.4437  -11.9142 H   0  0  0  0  0  0  0  0  0  0  0  0
   -8.0377    9.6171   -7.2499 H   0  0  0  0  0  0  0  0  0  0  0  0
   -6.7609   12.3104   -6.9078 H   0  0  0  0  0  0  0  0  0  0  0  0
   -4.5365   13.2843   -6.4555 H   0  0  0  0  0  0  0  0  0  0  0  0
   -2.6780    9.7532   -7.9999 H   0  0  0  0  0  0  0  0  0  0  0  0
   -4.8963    8.7799   -8.4714 H   0  0  0  0  0  0  0  0  0  0  0  0
   -2.4366   14.2100   -6.1184 H   0  0  0  0  0  0  0  0  0  0  0  0
   -0.6813   10.5543   -7.5304 H   0  0  0  0  0  0  0  0  0  0  0  0
    1.4790   14.3012   -6.0627 H   0  0  0  0  0  0  0  0  0  0  0  0
    0.2138   15.4529   -6.6095 H   0  0  0  0  0  0  0  0  0  0  0  0
    0.1971   14.8344   -4.9231 H   0  0  0  0  0  0  0  0  0  0  0  0
   -4.3503   15.0995  -10.6784 H   0  0  0  0  0  0  0  0  0  0  0  0
   -3.3270   12.3575  -10.1868 H   0  0  0  0  0  0  0  0  0  0  0  0
   -1.2811   13.3093  -11.4167 H   0  0  0  0  0  0  0  0  0  0  0  0
   -2.1756   14.8213  -11.7917 H   0  0  0  0  0  0  0  0  0  0  0  0
   -2.5050   15.2560   -9.2530 H   0  0  0  0  0  0  0  0  0  0  0  0
   -1.6106   13.7440   -8.8781 H   0  0  0  0  0  0  0  0  0  0  0  0
  1  2  1  0  0  0  0
  1  4  2  0  0  0  0
  1 11  1  0  0  0  0
  2  6  2  0  0  0  0
  3  4  1  0  0  0  0
  3  5  1  0  0  0  0
  5  6  1  0  0  0  0
  5  9  1  0  0  0  0
  6  7  1  0  0  0  0
  7  8  1  0  0  0  0
  7 10  2  3  0  0  0
  8  9  2  0  0  0  0
 10 12  1  0  0  0  0
 11 24  2  0  0  0  0
 11 25  2  0  0  0  0
 11 26  1  0  0  0  0
 12 13  2  0  0  0  0
 12 17  1  0  0  0  0
 13 14  1  0  0  0  0
 14 15  2  0  0  0  0
 15 16  1  0  0  0  0
 15 18  1  0  0  0  0
 16 17  2  0  0  0  0
 18 19  2  0  0  0  0
 18 22  1  0  0  0  0
 19 20  1  0  0  0  0
 20 21  1  0  0  0  0
 20 23  1  0  0  0  0
 21 22  2  0  0  0  0
 26 27  1  0  0  0  0
 27 28  1  0  0  0  0
 27 29  1  0  0  0  0
 28 29  1  0  0  0  0
  2 30  1  0  0  0  0
  3 31  1  0  0  0  0
  3 32  1  0  0  0  0
  4 33  1  0  0  0  0
  5 34  1  0  0  0  0
 10 35  1  0  0  0  0
 13 36  1  0  0  0  0
 14 37  1  0  0  0  0
 16 38  1  0  0  0  0
 17 39  1  0  0  0  0
 19 40  1  0  0  0  0
 22 41  1  0  0  0  0
 23 42  1  0  0  0  0
 23 43  1  0  0  0  0
 23 44  1  0  0  0  0
 26 45  1  0  0  0  0
 27 46  1  0  0  0  0
 28 47  1  0  0  0  0
 28 48  1  0  0  0  0
 29 49  1  0  0  0  0
 29 50  1  0  0  0  0
M  END
> <Name>
29

> <IC50[uM]>
0.18

$$$$
29
  -OEChem-05192314333D
 Structure written by MMmdl.
 50 54  0     1  0  0  0  0  0999 V2000
   -6.3727   12.3493  -11.9877 C   0  0  0  0  0  0  0  0  0  0  0  0
   -6.5190   11.8167  -10.7261 C   0  0  0  0  0  0  0  0  0  0  0  0
   -7.6919   10.5755  -13.0077 C   0  0  0  0  0  0  0  0  0  0  0  0
   -6.9476   11.7646  -13.1157 C   0  0  0  0  0  0  0  0  0  0  0  0
   -7.8131   10.0080  -11.7494 C   0  0  0  0  0  0  0  0  0  0  0  0
   -7.2399   10.6155  -10.5946 C   0  0  0  0  0  0  0  0  0  0  0  0
   -7.6088    9.7430   -9.5107 C   0  0  0  0  0  0  0  0  0  0  0  0
   -8.2764    8.7286   -9.9647 N   0  0  0  0  0  0  0  0  0  0  0  0
   -8.4188    8.8758  -11.2882 N   0  0  0  0  0  0  0  0  0  0  0  0
   -7.3326    9.8988   -8.0180 C   0  0  0  0  0  0  0  0  0  0  0  0
   -5.4060   13.8057  -12.2007 S   0  0  0  0  0  0  0  0  0  0  0  0
   -5.9763   10.4855   -7.7248 C   0  0  0  0  0  0  0  0  0  0  0  0
   -5.8692   11.7523   -7.1523 C   0  0  0  0  0  0  0  0  0  0  0  0
   -4.6115   12.3005   -6.8946 C   0  0  0  0  0  0  0  0  0  0  0  0
   -3.4415   11.5837   -7.2014 C   0  0  3  0  0  0  0  0  0  0  0  0
   -3.5677   10.3182   -7.7642 C   0  0  0  0  0  0  0  0  0  0  0  0
   -4.8209    9.7630   -8.0308 C   0  0  0  0  0  0  0  0  0  0  0  0
   -2.1027   12.1584   -6.9334 C   0  0  0  0  0  0  0  0  0  0  0  0
   -1.7604   13.4248   -6.4226 C   0  0  0  0  0  0  0  0  0  0  0  0
   -0.4260   13.4533   -6.3925 N   0  0  0  0  0  0  0  0  0  0  0  0
    0.1594   12.3444   -6.7934 N   0  0  0  0  0  0  0  0  0  0  0  0
   -0.8210   11.5507   -7.1379 C   0  0  0  0  0  0  0  0  0  0  0  0
    0.4194   14.5816   -5.9703 C   0  0  0  0  0  0  0  0  0  0  0  0
   -4.4605   13.4170  -13.2280 O   0  0  0  0  0  0  0  0  0  0  0  0
   -6.3362   14.9020  -12.4291 O   0  0  0  0  0  0  0  0  0  0  0  0
   -4.5495   14.1196  -10.6911 N   0  0  0  0  0  0  0  0  0  0  0  0
   -3.3000   13.4420  -10.3686 C   0  0  0  0  0  0  0  0  0  0  0  0
   -2.0717   13.9935  -11.0748 C   0  0  0  0  0  0  0  0  0  0  0  0
   -2.2627   14.2439   -9.6094 C   0  0  0  0  0  0  0  0  0  0  0  0
   -6.0929   12.3066   -9.8631 H   0  0  0  0  0  0  0  0  0  0  0  0
   -8.1517   10.1219  -13.8733 H   0  0  0  0  0  0  0  0  0  0  0  0
   -6.8202   12.2294  -14.0822 H   0  0  0  0  0  0  0  0  0  0  0  0
   -8.0377    9.6171   -7.2499 H   0  0  0  0  0  0  0  0  0  0  0  0
   -6.7609   12.3104   -6.9078 H   0  0  0  0  0  0  0  0  0  0  0  0
   -4.5586   13.2445   -7.4568 H   0  0  0  0  0  0  0  0  0  0  0  0
   -4.5762   12.5136   -5.8160 H   0  0  0  0  0  0  0  0  0  0  0  0
   -3.4318   12.0299   -8.2068 H   0  0  0  0  0  0  0  0  0  0  0  0
   -2.6780    9.7532   -7.9999 H   0  0  0  0  0  0  0  0  0  0  0  0
   -4.8963    8.7799   -8.4714 H   0  0  0  0  0  0  0  0  0  0  0  0
   -2.4366   14.2100   -6.1184 H   0  0  0  0  0  0  0  0  0  0  0  0
   -0.6813   10.5543   -7.5304 H   0  0  0  0  0  0  0  0  0  0  0  0
    1.4790   14.3012   -6.0627 H   0  0  0  0  0  0  0  0  0  0  0  0
    0.2138   15.4529   -6.6095 H   0  0  0  0  0  0  0  0  0  0  0  0
    0.1971   14.8344   -4.9231 H   0  0  0  0  0  0  0  0  0  0  0  0
   -4.3503   15.0995  -10.6784 H   0  0  0  0  0  0  0  0  0  0  0  0
   -3.3270   12.3575  -10.1868 H   0  0  0  0  0  0  0  0  0  0  0  0
   -1.2811   13.3093  -11.4167 H   0  0  0  0  0  0  0  0  0  0  0  0
   -2.1756   14.8213  -11.7917 H   0  0  0  0  0  0  0  0  0  0  0  0
   -2.5050   15.2560   -9.2530 H   0  0  0  0  0  0  0  0  0  0  0  0
   -1.6106   13.7440   -8.8781 H   0  0  0  0  0  0  0  0  0  0  0  0
  1  2  2  0  0  0  0
  1  4  1  0  0  0  0
  1 11  1  0  0  0  0
  2  6  1  0  0  0  0
  3  4  2  0  0  0  0
  3  5  1  0  0  0  0
  5  6  2  0  0  0  0
  5  9  1  0  0  0  0
  6  7  1  0  0  0  0
  7  8  1  0  0  0  0
  7 10  2  3  0  0  0
  8  9  2  0  0  0  0
 10 12  1  0  0  0  0
 11 24  2  0  0  0  0
 11 25  2  0  0  0  0
 11 26  1  0  0  0  0
 12 13  2  0  0  0  0
 12 17  1  0  0  0  0
 13 14  1  0  0  0  0
 14 15  1  0  0  0  0
 15 16  1  0  0  0  0
 15 18  1  0  0  0  0
 16 17  2  0  0  0  0
 18 19  2  0  0  0  0
 18 22  1  0  0  0  0
 19 20  1  0  0  0  0
 20 21  1  0  0  0  0
 20 23  1  0  0  0  0
 21 22  2  0  0  0  0
 26 27  1  0  0  0  0
 27 28  1  0  0  0  0
 27 29  1  0  0  0  0
 28 29  1  0  0  0  0
  2 30  1  0  0  0  0
  3 31  1  0  0  0  0
  4 32  1  0  0  0  0
 10 33  1  0  0  0  0
 13 34  1  0  0  0  0
 14 35  1  0  0  0  0
 14 36  1  0  0  0  0
 15 37  1  0  0  0  0
 16 38  1  0  0  0  0
 17 39  1  0  0  0  0
 19 40  1  0  0  0  0
 22 41  1  0  0  0  0
 23 42  1  0  0  0  0
 23 43  1  0  0  0  0
 23 44  1  0  0  0  0
 26 45  1  0  0  0  0
 27 46  1  0  0  0  0
 28 47  1  0  0  0  0
 28 48  1  0  0  0  0
 29 49  1  0  0  0  0
 29 50  1  0  0  0  0
M  END
> <Name>
29

> <IC50[uM]>
0.18

$$$$
29
  -OEChem-05192314333D
 Structure written by MMmdl.
 50 54  0     1  0  0  0  0  0999 V2000
   -6.3727   12.3493  -11.9877 C   0  0  0  0  0  0  0  0  0  0  0  0
   -6.5190   11.8167  -10.7261 C   0  0  0  0  0  0  0  0  0  0  0  0
   -7.6919   10.5755  -13.0077 C   0  0  0  0  0  0  0  0  0  0  0  0
   -6.9476   11.7646  -13.1157 C   0  0  0  0  0  0  0  0  0  0  0  0
   -7.8131   10.0080  -11.7494 C   0  0  0  0  0  0  0  0  0  0  0  0
   -7.2399   10.6155  -10.5946 C   0  0  0  0  0  0  0  0  0  0  0  0
   -7.6088    9.7430   -9.5107 C   0  0  0  0  0  0  0  0  0  0  0  0
   -8.2764    8.7286   -9.9647 N   0  0  0  0  0  0  0  0  0  0  0  0
   -8.4188    8.8758  -11.2882 N   0  0  0  0  0  0  0  0  0  0  0  0
   -7.3326    9.8988   -8.0180 C   0  0  0  0  0  0  0  0  0  0  0  0
   -5.4060   13.8057  -12.2007 S   0  0  0  0  0  0  0  0  0  0  0  0
   -5.9763   10.4855   -7.7248 C   0  0  3  0  0  0  0  0  0  0  0  0
   -5.8692   11.7523   -7.1523 C   0  0  0  0  0  0  0  0  0  0  0  0
   -4.6115   12.3005   -6.8946 C   0  0  0  0  0  0  0  0  0  0  0  0
   -3.4415   11.5837   -7.2014 C   0  0  0  0  0  0  0  0  0  0  0  0
   -3.5677   10.3182   -7.7642 C   0  0  0  0  0  0  0  0  0  0  0  0
   -4.8209    9.7630   -8.0308 C   0  0  0  0  0  0  0  0  0  0  0  0
   -2.1027   12.1584   -6.9334 C   0  0  0  0  0  0  0  0  0  0  0  0
   -1.7604   13.4248   -6.4226 C   0  0  0  0  0  0  0  0  0  0  0  0
   -0.4260   13.4533   -6.3925 N   0  0  0  0  0  0  0  0  0  0  0  0
    0.1594   12.3444   -6.7934 N   0  0  0  0  0  0  0  0  0  0  0  0
   -0.8210   11.5507   -7.1379 C   0  0  0  0  0  0  0  0  0  0  0  0
    0.4194   14.5816   -5.9703 C   0  0  0  0  0  0  0  0  0  0  0  0
   -4.4605   13.4170  -13.2280 O   0  0  0  0  0  0  0  0  0  0  0  0
   -6.3362   14.9020  -12.4291 O   0  0  0  0  0  0  0  0  0  0  0  0
   -4.5495   14.1196  -10.6911 N   0  0  0  0  0  0  0  0  0  0  0  0
   -3.3000   13.4420  -10.3686 C   0  0  0  0  0  0  0  0  0  0  0  0
   -2.0717   13.9935  -11.0748 C   0  0  0  0  0  0  0  0  0  0  0  0
   -2.2627   14.2439   -9.6094 C   0  0  0  0  0  0  0  0  0  0  0  0
   -6.0929   12.3066   -9.8631 H   0  0  0  0  0  0  0  0  0  0  0  0
   -8.1517   10.1219  -13.8733 H   0  0  0  0  0  0  0  0  0  0  0  0
   -6.8202   12.2294  -14.0822 H   0  0  0  0  0  0  0  0  0  0  0  0
   -8.0377    9.6171   -7.2499 H   0  0  0  0  0  0  0  0  0  0  0  0
   -5.9957   10.0327   -6.7225 H   0  0  0  0  0  0  0  0  0  0  0  0
   -6.7609   12.3104   -6.9078 H   0  0  0  0  0  0  0  0  0  0  0  0
   -4.5365   13.2843   -6.4555 H   0  0  0  0  0  0  0  0  0  0  0  0
   -2.6780    9.7532   -7.9999 H   0  0  0  0  0  0  0  0  0  0  0  0
   -4.8773    8.8184   -7.4700 H   0  0  0  0  0  0  0  0  0  0  0  0
   -4.8532    9.5514   -9.1098 H   0  0  0  0  0  0  0  0  0  0  0  0
   -2.4366   14.2100   -6.1184 H   0  0  0  0  0  0  0  0  0  0  0  0
   -0.6813   10.5543   -7.5304 H   0  0  0  0  0  0  0  0  0  0  0  0
    1.4790   14.3012   -6.0627 H   0  0  0  0  0  0  0  0  0  0  0  0
    0.2138   15.4529   -6.6095 H   0  0  0  0  0  0  0  0  0  0  0  0
    0.1971   14.8344   -4.9231 H   0  0  0  0  0  0  0  0  0  0  0  0
   -4.3503   15.0995  -10.6784 H   0  0  0  0  0  0  0  0  0  0  0  0
   -3.3270   12.3575  -10.1868 H   0  0  0  0  0  0  0  0  0  0  0  0
   -1.2811   13.3093  -11.4167 H   0  0  0  0  0  0  0  0  0  0  0  0
   -2.1756   14.8213  -11.7917 H   0  0  0  0  0  0  0  0  0  0  0  0
   -2.5050   15.2560   -9.2530 H   0  0  0  0  0  0  0  0  0  0  0  0
   -1.6106   13.7440   -8.8781 H   0  0  0  0  0  0  0  0  0  0  0  0
  1  2  2  0  0  0  0
  1  4  1  0  0  0  0
  1 11  1  0  0  0  0
  2  6  1  0  0  0  0
  3  4  2  0  0  0  0
  3  5  1  0  0  0  0
  5  6  2  0  0  0  0
  5  9  1  0  0  0  0
  6  7  1  0  0  0  0
  7  8  1  0  0  0  0
  7 10  2  3  0  0  0
  8  9  2  0  0  0  0
 10 12  1  0  0  0  0
 11 24  2  0  0  0  0
 11 25  2  0  0  0  0
 11 26  1  0  0  0  0
 12 13  1  0  0  0  0
 12 17  1  0  0  0  0
 13 14  2  0  0  0  0
 14 15  1  0  0  0  0
 15 16  2  0  0  0  0
 15 18  1  0  0  0  0
 16 17  1  0  0  0  0
 18 19  2  0  0  0  0
 18 22  1  0  0  0  0
 19 20  1  0  0  0  0
 20 21  1  0  0  0  0
 20 23  1  0  0  0  0
 21 22  2  0  0  0  0
 26 27  1  0  0  0  0
 27 28  1  0  0  0  0
 27 29  1  0  0  0  0
 28 29  1  0  0  0  0
  2 30  1  0  0  0  0
  3 31  1  0  0  0  0
  4 32  1  0  0  0  0
 10 33  1  0  0  0  0
 12 34  1  0  0  0  0
 13 35  1  0  0  0  0
 14 36  1  0  0  0  0
 16 37  1  0  0  0  0
 17 38  1  0  0  0  0
 17 39  1  0  0  0  0
 19 40  1  0  0  0  0
 22 41  1  0  0  0  0
 23 42  1  0  0  0  0
 23 43  1  0  0  0  0
 23 44  1  0  0  0  0
 26 45  1  0  0  0  0
 27 46  1  0  0  0  0
 28 47  1  0  0  0  0
 28 48  1  0  0  0  0
 29 49  1  0  0  0  0
 29 50  1  0  0  0  0
M  END
> <Name>
29

> <IC50[uM]>
0.18

$$$$
29
  -OEChem-05192314333D
 Structure written by MMmdl.
 50 54  0     1  0  0  0  0  0999 V2000
   -6.3727   12.3493  -11.9877 C   0  0  0  0  0  0  0  0  0  0  0  0
   -6.5190   11.8167  -10.7261 C   0  0  0  0  0  0  0  0  0  0  0  0
   -7.6919   10.5755  -13.0077 C   0  0  0  0  0  0  0  0  0  0  0  0
   -6.9476   11.7646  -13.1157 C   0  0  0  0  0  0  0  0  0  0  0  0
   -7.8131   10.0080  -11.7494 C   0  0  0  0  0  0  0  0  0  0  0  0
   -7.2399   10.6155  -10.5946 C   0  0  0  0  0  0  0  0  0  0  0  0
   -7.6088    9.7430   -9.5107 C   0  0  3  0  0  0  0  0  0  0  0  0
   -8.2764    8.7286   -9.9647 N   0  0  0  0  0  0  0  0  0  0  0  0
   -8.4188    8.8758  -11.2882 N   0  0  0  0  0  0  0  0  0  0  0  0
   -7.3326    9.8988   -8.0180 C   0  0  0  0  0  0  0  0  0  0  0  0
   -5.4060   13.8057  -12.2007 S   0  0  0  0  0  0  0  0  0  0  0  0
   -5.9763   10.4855   -7.7248 C   0  0  0  0  0  0  0  0  0  0  0  0
   -5.8692   11.7523   -7.1523 C   0  0  0  0  0  0  0  0  0  0  0  0
   -4.6115   12.3005   -6.8946 C   0  0  0  0  0  0  0  0  0  0  0  0
   -3.4415   11.5837   -7.2014 C   0  0  0  0  0  0  0  0  0  0  0  0
   -3.5677   10.3182   -7.7642 C   0  0  0  0  0  0  0  0  0  0  0  0
   -4.8209    9.7630   -8.0308 C   0  0  0  0  0  0  0  0  0  0  0  0
   -2.1027   12.1584   -6.9334 C   0  0  0  0  0  0  0  0  0  0  0  0
   -1.7604   13.4248   -6.4226 C   0  0  0  0  0  0  0  0  0  0  0  0
   -0.4260   13.4533   -6.3925 N   0  0  0  0  0  0  0  0  0  0  0  0
    0.1594   12.3444   -6.7934 N   0  0  0  0  0  0  0  0  0  0  0  0
   -0.8210   11.5507   -7.1379 C   0  0  0  0  0  0  0  0  0  0  0  0
    0.4194   14.5816   -5.9703 C   0  0  0  0  0  0  0  0  0  0  0  0
   -4.4605   13.4170  -13.2280 O   0  0  0  0  0  0  0  0  0  0  0  0
   -6.3362   14.9020  -12.4291 O   0  0  0  0  0  0  0  0  0  0  0  0
   -4.5495   14.1196  -10.6911 N   0  0  0  0  0  0  0  0  0  0  0  0
   -3.3000   13.4420  -10.3686 C   0  0  0  0  0  0  0  0  0  0  0  0
   -2.0717   13.9935  -11.0748 C   0  0  0  0  0  0  0  0  0  0  0  0
   -2.2627   14.2439   -9.6094 C   0  0  0  0  0  0  0  0  0  0  0  0
   -6.0929   12.3066   -9.8631 H   0  0  0  0  0  0  0  0  0  0  0  0
   -8.1517   10.1219  -13.8733 H   0  0  0  0  0  0  0  0  0  0  0  0
   -6.8202   12.2294  -14.0822 H   0  0  0  0  0  0  0  0  0  0  0  0
   -6.6681    9.1858   -9.6318 H   0  0  0  0  0  0  0  0  0  0  0  0
   -8.0377    9.6171   -7.2499 H   0  0  0  0  0  0  0  0  0  0  0  0
   -6.7609   12.3104   -6.9078 H   0  0  0  0  0  0  0  0  0  0  0  0
   -4.5365   13.2843   -6.4555 H   0  0  0  0  0  0  0  0  0  0  0  0
   -2.6780    9.7532   -7.9999 H   0  0  0  0  0  0  0  0  0  0  0  0
   -4.8773    8.8184   -7.4700 H   0  0  0  0  0  0  0  0  0  0  0  0
   -4.8532    9.5514   -9.1098 H   0  0  0  0  0  0  0  0  0  0  0  0
   -2.4366   14.2100   -6.1184 H   0  0  0  0  0  0  0  0  0  0  0  0
   -0.6813   10.5543   -7.5304 H   0  0  0  0  0  0  0  0  0  0  0  0
    1.4790   14.3012   -6.0627 H   0  0  0  0  0  0  0  0  0  0  0  0
    0.2138   15.4529   -6.6095 H   0  0  0  0  0  0  0  0  0  0  0  0
    0.1971   14.8344   -4.9231 H   0  0  0  0  0  0  0  0  0  0  0  0
   -4.3503   15.0995  -10.6784 H   0  0  0  0  0  0  0  0  0  0  0  0
   -3.3270   12.3575  -10.1868 H   0  0  0  0  0  0  0  0  0  0  0  0
   -1.2811   13.3093  -11.4167 H   0  0  0  0  0  0  0  0  0  0  0  0
   -2.1756   14.8213  -11.7917 H   0  0  0  0  0  0  0  0  0  0  0  0
   -2.5050   15.2560   -9.2530 H   0  0  0  0  0  0  0  0  0  0  0  0
   -1.6106   13.7440   -8.8781 H   0  0  0  0  0  0  0  0  0  0  0  0
  1  2  2  0  0  0  0
  1  4  1  0  0  0  0
  1 11  1  0  0  0  0
  2  6  1  0  0  0  0
  3  4  2  0  0  0  0
  3  5  1  0  0  0  0
  5  6  2  0  0  0  0
  5  9  1  0  0  0  0
  6  7  1  0  0  0  0
  7  8  1  0  0  0  0
  7 10  1  0  0  0  0
  8  9  2  0  0  0  0
 10 12  2  3  0  0  0
 11 24  2  0  0  0  0
 11 25  2  0  0  0  0
 11 26  1  0  0  0  0
 12 13  1  0  0  0  0
 12 17  1  0  0  0  0
 13 14  2  0  0  0  0
 14 15  1  0  0  0  0
 15 16  2  0  0  0  0
 15 18  1  0  0  0  0
 16 17  1  0  0  0  0
 18 19  2  0  0  0  0
 18 22  1  0  0  0  0
 19 20  1  0  0  0  0
 20 21  1  0  0  0  0
 20 23  1  0  0  0  0
 21 22  2  0  0  0  0
 26 27  1  0  0  0  0
 27 28  1  0  0  0  0
 27 29  1  0  0  0  0
 28 29  1  0  0  0  0
  2 30  1  0  0  0  0
  3 31  1  0  0  0  0
  4 32  1  0  0  0  0
  7 33  1  0  0  0  0
 10 34  1  0  0  0  0
 13 35  1  0  0  0  0
 14 36  1  0  0  0  0
 16 37  1  0  0  0  0
 17 38  1  0  0  0  0
 17 39  1  0  0  0  0
 19 40  1  0  0  0  0
 22 41  1  0  0  0  0
 23 42  1  0  0  0  0
 23 43  1  0  0  0  0
 23 44  1  0  0  0  0
 26 45  1  0  0  0  0
 27 46  1  0  0  0  0
 28 47  1  0  0  0  0
 28 48  1  0  0  0  0
 29 49  1  0  0  0  0
 29 50  1  0  0  0  0
M  END
> <Name>
29

> <IC50[uM]>
0.18

$$$$
29
  -OEChem-05192314333D
 Structure written by MMmdl.
 50 54  0     0  0  0  0  0  0999 V2000
   -6.3727   12.3493  -11.9877 C   0  0  0  0  0  0  0  0  0  0  0  0
   -6.5190   11.8167  -10.7261 C   0  0  0  0  0  0  0  0  0  0  0  0
   -7.6919   10.5755  -13.0077 C   0  0  0  0  0  0  0  0  0  0  0  0
   -6.9476   11.7646  -13.1157 C   0  0  0  0  0  0  0  0  0  0  0  0
   -7.8131   10.0080  -11.7494 C   0  0  0  0  0  0  0  0  0  0  0  0
   -7.2399   10.6155  -10.5946 C   0  0  0  0  0  0  0  0  0  0  0  0
   -7.6088    9.7430   -9.5107 C   0  0  0  0  0  0  0  0  0  0  0  0
   -8.2764    8.7286   -9.9647 N   0  0  0  0  0  0  0  0  0  0  0  0
   -8.4188    8.8758  -11.2882 N   0  0  0  0  0  0  0  0  0  0  0  0
   -7.3326    9.8988   -8.0180 C   0  0  0  0  0  0  0  0  0  0  0  0
   -5.4060   13.8057  -12.2007 S   0  0  0  0  0  0  0  0  0  0  0  0
   -5.9763   10.4855   -7.7248 C   0  0  0  0  0  0  0  0  0  0  0  0
   -5.8692   11.7523   -7.1523 C   0  0  0  0  0  0  0  0  0  0  0  0
   -4.6115   12.3005   -6.8946 C   0  0  0  0  0  0  0  0  0  0  0  0
   -3.4415   11.5837   -7.2014 C   0  0  0  0  0  0  0  0  0  0  0  0
   -3.5677   10.3182   -7.7642 C   0  0  0  0  0  0  0  0  0  0  0  0
   -4.8209    9.7630   -8.0308 C   0  0  0  0  0  0  0  0  0  0  0  0
   -2.1027   12.1584   -6.9334 C   0  0  0  0  0  0  0  0  0  0  0  0
   -1.7604   13.4248   -6.4226 C   0  0  0  0  0  0  0  0  0  0  0  0
   -0.4260   13.4533   -6.3925 N   0  0  0  0  0  0  0  0  0  0  0  0
    0.1594   12.3444   -6.7934 N   0  0  0  0  0  0  0  0  0  0  0  0
   -0.8210   11.5507   -7.1379 C   0  0  0  0  0  0  0  0  0  0  0  0
    0.4194   14.5816   -5.9703 C   0  0  0  0  0  0  0  0  0  0  0  0
   -4.4605   13.4170  -13.2280 O   0  0  0  0  0  0  0  0  0  0  0  0
   -6.3362   14.9020  -12.4291 O   0  0  0  0  0  0  0  0  0  0  0  0
   -4.5495   14.1196  -10.6911 N   0  0  0  0  0  0  0  0  0  0  0  0
   -3.3000   13.4420  -10.3686 C   0  0  0  0  0  0  0  0  0  0  0  0
   -2.0717   13.9935  -11.0748 C   0  0  0  0  0  0  0  0  0  0  0  0
   -2.2627   14.2439   -9.6094 C   0  0  0  0  0  0  0  0  0  0  0  0
   -6.0929   12.3066   -9.8631 H   0  0  0  0  0  0  0  0  0  0  0  0
   -8.1517   10.1219  -13.8733 H   0  0  0  0  0  0  0  0  0  0  0  0
   -6.8202   12.2294  -14.0822 H   0  0  0  0  0  0  0  0  0  0  0  0
   -8.0377    9.6171   -7.2499 H   0  0  0  0  0  0  0  0  0  0  0  0
   -6.7609   12.3104   -6.9078 H   0  0  0  0  0  0  0  0  0  0  0  0
   -4.5586   13.2445   -7.4568 H   0  0  0  0  0  0  0  0  0  0  0  0
   -4.5762   12.5136   -5.8160 H   0  0  0  0  0  0  0  0  0  0  0  0
   -2.6780    9.7532   -7.9999 H   0  0  0  0  0  0  0  0  0  0  0  0
   -4.8773    8.8184   -7.4700 H   0  0  0  0  0  0  0  0  0  0  0  0
   -4.8532    9.5514   -9.1098 H   0  0  0  0  0  0  0  0  0  0  0  0
   -2.4366   14.2100   -6.1184 H   0  0  0  0  0  0  0  0  0  0  0  0
   -0.6813   10.5543   -7.5304 H   0  0  0  0  0  0  0  0  0  0  0  0
    1.4790   14.3012   -6.0627 H   0  0  0  0  0  0  0  0  0  0  0  0
    0.2138   15.4529   -6.6095 H   0  0  0  0  0  0  0  0  0  0  0  0
    0.1971   14.8344   -4.9231 H   0  0  0  0  0  0  0  0  0  0  0  0
   -4.3503   15.0995  -10.6784 H   0  0  0  0  0  0  0  0  0  0  0  0
   -3.3270   12.3575  -10.1868 H   0  0  0  0  0  0  0  0  0  0  0  0
   -1.2811   13.3093  -11.4167 H   0  0  0  0  0  0  0  0  0  0  0  0
   -2.1756   14.8213  -11.7917 H   0  0  0  0  0  0  0  0  0  0  0  0
   -2.5050   15.2560   -9.2530 H   0  0  0  0  0  0  0  0  0  0  0  0
   -1.6106   13.7440   -8.8781 H   0  0  0  0  0  0  0  0  0  0  0  0
  1  2  2  0  0  0  0
  1  4  1  0  0  0  0
  1 11  1  0  0  0  0
  2  6  1  0  0  0  0
  3  4  2  0  0  0  0
  3  5  1  0  0  0  0
  5  6  2  0  0  0  0
  5  9  1  0  0  0  0
  6  7  1  0  0  0  0
  7  8  1  0  0  0  0
  7 10  2  3  0  0  0
  8  9  2  0  0  0  0
 10 12  1  0  0  0  0
 11 24  2  0  0  0  0
 11 25  2  0  0  0  0
 11 26  1  0  0  0  0
 12 13  2  0  0  0  0
 12 17  1  0  0  0  0
 13 14  1  0  0  0  0
 14 15  1  0  0  0  0
 15 16  2  0  0  0  0
 15 18  1  0  0  0  0
 16 17  1  0  0  0  0
 18 19  2  0  0  0  0
 18 22  1  0  0  0  0
 19 20  1  0  0  0  0
 20 21  1  0  0  0  0
 20 23  1  0  0  0  0
 21 22  2  0  0  0  0
 26 27  1  0  0  0  0
 27 28  1  0  0  0  0
 27 29  1  0  0  0  0
 28 29  1  0  0  0  0
  2 30  1  0  0  0  0
  3 31  1  0  0  0  0
  4 32  1  0  0  0  0
 10 33  1  0  0  0  0
 13 34  1  0  0  0  0
 14 35  1  0  0  0  0
 14 36  1  0  0  0  0
 16 37  1  0  0  0  0
 17 38  1  0  0  0  0
 17 39  1  0  0  0  0
 19 40  1  0  0  0  0
 22 41  1  0  0  0  0
 23 42  1  0  0  0  0
 23 43  1  0  0  0  0
 23 44  1  0  0  0  0
 26 45  1  0  0  0  0
 27 46  1  0  0  0  0
 28 47  1  0  0  0  0
 28 48  1  0  0  0  0
 29 49  1  0  0  0  0
 29 50  1  0  0  0  0
M  END
> <Name>
29

> <IC50[uM]>
0.18

$$$$
29
  -OEChem-05192314333D
 Structure written by MMmdl.
 50 54  0     0  0  0  0  0  0999 V2000
   -6.3727   12.3493  -11.9877 C   0  0  0  0  0  0  0  0  0  0  0  0
   -6.5190   11.8167  -10.7261 C   0  0  0  0  0  0  0  0  0  0  0  0
   -7.6919   10.5755  -13.0077 C   0  0  0  0  0  0  0  0  0  0  0  0
   -6.9476   11.7646  -13.1157 C   0  0  0  0  0  0  0  0  0  0  0  0
   -7.8131   10.0080  -11.7494 C   0  0  0  0  0  0  0  0  0  0  0  0
   -7.2399   10.6155  -10.5946 C   0  0  0  0  0  0  0  0  0  0  0  0
   -7.6088    9.7430   -9.5107 C   0  0  0  0  0  0  0  0  0  0  0  0
   -8.2764    8.7286   -9.9647 N   0  0  0  0  0  0  0  0  0  0  0  0
   -8.4188    8.8758  -11.2882 N   0  0  0  0  0  0  0  0  0  0  0  0
   -7.3326    9.8988   -8.0180 C   0  0  0  0  0  0  0  0  0  0  0  0
   -5.4060   13.8057  -12.2007 S   0  0  0  0  0  0  0  0  0  0  0  0
   -5.9763   10.4855   -7.7248 C   0  0  0  0  0  0  0  0  0  0  0  0
   -5.8692   11.7523   -7.1523 C   0  0  0  0  0  0  0  0  0  0  0  0
   -4.6115   12.3005   -6.8946 C   0  0  0  0  0  0  0  0  0  0  0  0
   -3.4415   11.5837   -7.2014 C   0  0  0  0  0  0  0  0  0  0  0  0
   -3.5677   10.3182   -7.7642 C   0  0  0  0  0  0  0  0  0  0  0  0
   -4.8209    9.7630   -8.0308 C   0  0  0  0  0  0  0  0  0  0  0  0
   -2.1027   12.1584   -6.9334 C   0  0  0  0  0  0  0  0  0  0  0  0
   -1.7604   13.4248   -6.4226 C   0  0  0  0  0  0  0  0  0  0  0  0
   -0.4260   13.4533   -6.3925 N   0  0  0  0  0  0  0  0  0  0  0  0
    0.1594   12.3444   -6.7934 N   0  0  0  0  0  0  0  0  0  0  0  0
   -0.8210   11.5507   -7.1379 C   0  0  0  0  0  0  0  0  0  0  0  0
    0.4194   14.5816   -5.9703 C   0  0  0  0  0  0  0  0  0  0  0  0
   -4.4605   13.4170  -13.2280 O   0  0  0  0  0  0  0  0  0  0  0  0
   -6.3362   14.9020  -12.4291 O   0  0  0  0  0  0  0  0  0  0  0  0
   -4.5495   14.1196  -10.6911 N   0  0  0  0  0  0  0  0  0  0  0  0
   -3.3000   13.4420  -10.3686 C   0  0  0  0  0  0  0  0  0  0  0  0
   -2.0717   13.9935  -11.0748 C   0  0  0  0  0  0  0  0  0  0  0  0
   -2.2627   14.2439   -9.6094 C   0  0  0  0  0  0  0  0  0  0  0  0
   -6.0929   12.3066   -9.8631 H   0  0  0  0  0  0  0  0  0  0  0  0
   -8.1517   10.1219  -13.8733 H   0  0  0  0  0  0  0  0  0  0  0  0
   -6.8202   12.2294  -14.0822 H   0  0  0  0  0  0  0  0  0  0  0  0
   -8.0377    9.6171   -7.2499 H   0  0  0  0  0  0  0  0  0  0  0  0
   -6.7609   12.3104   -6.9078 H   0  0  0  0  0  0  0  0  0  0  0  0
   -4.5365   13.2843   -6.4555 H   0  0  0  0  0  0  0  0  0  0  0  0
   -3.0310   10.3497   -8.7239 H   0  0  0  0  0  0  0  0  0  0  0  0
   -3.0580    9.6221   -7.0818 H   0  0  0  0  0  0  0  0  0  0  0  0
   -4.8773    8.8184   -7.4700 H   0  0  0  0  0  0  0  0  0  0  0  0
   -4.8532    9.5514   -9.1098 H   0  0  0  0  0  0  0  0  0  0  0  0
   -2.4366   14.2100   -6.1184 H   0  0  0  0  0  0  0  0  0  0  0  0
   -0.6813   10.5543   -7.5304 H   0  0  0  0  0  0  0  0  0  0  0  0
    1.4790   14.3012   -6.0627 H   0  0  0  0  0  0  0  0  0  0  0  0
    0.2138   15.4529   -6.6095 H   0  0  0  0  0  0  0  0  0  0  0  0
    0.1971   14.8344   -4.9231 H   0  0  0  0  0  0  0  0  0  0  0  0
   -4.3503   15.0995  -10.6784 H   0  0  0  0  0  0  0  0  0  0  0  0
   -3.3270   12.3575  -10.1868 H   0  0  0  0  0  0  0  0  0  0  0  0
   -1.2811   13.3093  -11.4167 H   0  0  0  0  0  0  0  0  0  0  0  0
   -2.1756   14.8213  -11.7917 H   0  0  0  0  0  0  0  0  0  0  0  0
   -2.5050   15.2560   -9.2530 H   0  0  0  0  0  0  0  0  0  0  0  0
   -1.6106   13.7440   -8.8781 H   0  0  0  0  0  0  0  0  0  0  0  0
  1  2  2  0  0  0  0
  1  4  1  0  0  0  0
  1 11  1  0  0  0  0
  2  6  1  0  0  0  0
  3  4  2  0  0  0  0
  3  5  1  0  0  0  0
  5  6  2  0  0  0  0
  5  9  1  0  0  0  0
  6  7  1  0  0  0  0
  7  8  1  0  0  0  0
  7 10  2  3  0  0  0
  8  9  2  0  0  0  0
 10 12  1  0  0  0  0
 11 24  2  0  0  0  0
 11 25  2  0  0  0  0
 11 26  1  0  0  0  0
 12 13  2  0  0  0  0
 12 17  1  0  0  0  0
 13 14  1  0  0  0  0
 14 15  2  0  0  0  0
 15 16  1  0  0  0  0
 15 18  1  0  0  0  0
 16 17  1  0  0  0  0
 18 19  2  0  0  0  0
 18 22  1  0  0  0  0
 19 20  1  0  0  0  0
 20 21  1  0  0  0  0
 20 23  1  0  0  0  0
 21 22  2  0  0  0  0
 26 27  1  0  0  0  0
 27 28  1  0  0  0  0
 27 29  1  0  0  0  0
 28 29  1  0  0  0  0
  2 30  1  0  0  0  0
  3 31  1  0  0  0  0
  4 32  1  0  0  0  0
 10 33  1  0  0  0  0
 13 34  1  0  0  0  0
 14 35  1  0  0  0  0
 16 36  1  0  0  0  0
 16 37  1  0  0  0  0
 17 38  1  0  0  0  0
 17 39  1  0  0  0  0
 19 40  1  0  0  0  0
 22 41  1  0  0  0  0
 23 42  1  0  0  0  0
 23 43  1  0  0  0  0
 23 44  1  0  0  0  0
 26 45  1  0  0  0  0
 27 46  1  0  0  0  0
 28 47  1  0  0  0  0
 28 48  1  0  0  0  0
 29 49  1  0  0  0  0
 29 50  1  0  0  0  0
M  END
> <Name>
29

> <IC50[uM]>
0.18

$$$$
29
  -OEChem-05192314333D
 Structure written by MMmdl.
 50 54  0     1  0  0  0  0  0999 V2000
   -6.3727   12.3493  -11.9877 C   0  0  3  0  0  0  0  0  0  0  0  0
   -6.5190   11.8167  -10.7261 C   0  0  0  0  0  0  0  0  0  0  0  0
   -7.6919   10.5755  -13.0077 C   0  0  0  0  0  0  0  0  0  0  0  0
   -6.9476   11.7646  -13.1157 C   0  0  0  0  0  0  0  0  0  0  0  0
   -7.8131   10.0080  -11.7494 C   0  0  0  0  0  0  0  0  0  0  0  0
   -7.2399   10.6155  -10.5946 C   0  0  0  0  0  0  0  0  0  0  0  0
   -7.6088    9.7430   -9.5107 C   0  0  0  0  0  0  0  0  0  0  0  0
   -8.2764    8.7286   -9.9647 N   0  0  0  0  0  0  0  0  0  0  0  0
   -8.4188    8.8758  -11.2882 N   0  0  0  0  0  0  0  0  0  0  0  0
   -7.3326    9.8988   -8.0180 C   0  0  0  0  0  0  0  0  0  0  0  0
   -5.4060   13.8057  -12.2007 S   0  0  0  0  0  0  0  0  0  0  0  0
   -5.9763   10.4855   -7.7248 C   0  0  0  0  0  0  0  0  0  0  0  0
   -5.8692   11.7523   -7.1523 C   0  0  0  0  0  0  0  0  0  0  0  0
   -4.6115   12.3005   -6.8946 C   0  0  0  0  0  0  0  0  0  0  0  0
   -3.4415   11.5837   -7.2014 C   0  0  0  0  0  0  0  0  0  0  0  0
   -3.5677   10.3182   -7.7642 C   0  0  0  0  0  0  0  0  0  0  0  0
   -4.8209    9.7630   -8.0308 C   0  0  0  0  0  0  0  0  0  0  0  0
   -2.1027   12.1584   -6.9334 C   0  0  0  0  0  0  0  0  0  0  0  0
   -1.7604   13.4248   -6.4226 C   0  0  0  0  0  0  0  0  0  0  0  0
   -0.4260   13.4533   -6.3925 N   0  0  0  0  0  0  0  0  0  0  0  0
    0.1594   12.3444   -6.7934 N   0  0  0  0  0  0  0  0  0  0  0  0
   -0.8210   11.5507   -7.1379 C   0  0  0  0  0  0  0  0  0  0  0  0
    0.4194   14.5816   -5.9703 C   0  0  0  0  0  0  0  0  0  0  0  0
   -4.4605   13.4170  -13.2280 O   0  0  0  0  0  0  0  0  0  0  0  0
   -6.3362   14.9020  -12.4291 O   0  0  0  0  0  0  0  0  0  0  0  0
   -4.5495   14.1196  -10.6911 N   0  0  0  0  0  0  0  0  0  0  0  0
   -3.3000   13.4420  -10.3686 C   0  0  0  0  0  0  0  0  0  0  0  0
   -2.0717   13.9935  -11.0748 C   0  0  0  0  0  0  0  0  0  0  0  0
   -2.2627   14.2439   -9.6094 C   0  0  0  0  0  0  0  0  0  0  0  0
   -7.2734   12.9632  -11.8395 H   0  0  0  0  0  0  0  0  0  0  0  0
   -6.0929   12.3066   -9.8631 H   0  0  0  0  0  0  0  0  0  0  0  0
   -8.1517   10.1219  -13.8733 H   0  0  0  0  0  0  0  0  0  0  0  0
   -7.6202   12.5178  -13.5518 H   0  0  0  0  0  0  0  0  0  0  0  0
   -6.1251   11.5580  -13.8163 H   0  0  0  0  0  0  0  0  0  0  0  0
   -8.0377    9.6171   -7.2499 H   0  0  0  0  0  0  0  0  0  0  0  0
   -6.7609   12.3104   -6.9078 H   0  0  0  0  0  0  0  0  0  0  0  0
   -4.5365   13.2843   -6.4555 H   0  0  0  0  0  0  0  0  0  0  0  0
   -2.6780    9.7532   -7.9999 H   0  0  0  0  0  0  0  0  0  0  0  0
   -4.8963    8.7799   -8.4714 H   0  0  0  0  0  0  0  0  0  0  0  0
   -2.4366   14.2100   -6.1184 H   0  0  0  0  0  0  0  0  0  0  0  0
   -0.6813   10.5543   -7.5304 H   0  0  0  0  0  0  0  0  0  0  0  0
    1.4790   14.3012   -6.0627 H   0  0  0  0  0  0  0  0  0  0  0  0
    0.2138   15.4529   -6.6095 H   0  0  0  0  0  0  0  0  0  0  0  0
    0.1971   14.8344   -4.9231 H   0  0  0  0  0  0  0  0  0  0  0  0
   -4.3503   15.0995  -10.6784 H   0  0  0  0  0  0  0  0  0  0  0  0
   -3.3270   12.3575  -10.1868 H   0  0  0  0  0  0  0  0  0  0  0  0
   -1.2811   13.3093  -11.4167 H   0  0  0  0  0  0  0  0  0  0  0  0
   -2.1756   14.8213  -11.7917 H   0  0  0  0  0  0  0  0  0  0  0  0
   -2.5050   15.2560   -9.2530 H   0  0  0  0  0  0  0  0  0  0  0  0
   -1.6106   13.7440   -8.8781 H   0  0  0  0  0  0  0  0  0  0  0  0
  1  2  1  0  0  0  0
  1  4  1  0  0  0  0
  1 11  1  0  0  0  0
  2  6  2  0  0  0  0
  3  4  1  0  0  0  0
  3  5  2  0  0  0  0
  5  6  1  0  0  0  0
  5  9  1  0  0  0  0
  6  7  1  0  0  0  0
  7  8  1  0  0  0  0
  7 10  2  3  0  0  0
  8  9  2  0  0  0  0
 10 12  1  0  0  0  0
 11 24  2  0  0  0  0
 11 25  2  0  0  0  0
 11 26  1  0  0  0  0
 12 13  2  0  0  0  0
 12 17  1  0  0  0  0
 13 14  1  0  0  0  0
 14 15  2  0  0  0  0
 15 16  1  0  0  0  0
 15 18  1  0  0  0  0
 16 17  2  0  0  0  0
 18 19  2  0  0  0  0
 18 22  1  0  0  0  0
 19 20  1  0  0  0  0
 20 21  1  0  0  0  0
 20 23  1  0  0  0  0
 21 22  2  0  0  0  0
 26 27  1  0  0  0  0
 27 28  1  0  0  0  0
 27 29  1  0  0  0  0
 28 29  1  0  0  0  0
  1 30  1  0  0  0  0
  2 31  1  0  0  0  0
  3 32  1  0  0  0  0
  4 33  1  0  0  0  0
  4 34  1  0  0  0  0
 10 35  1  0  0  0  0
 13 36  1  0  0  0  0
 14 37  1  0  0  0  0
 16 38  1  0  0  0  0
 17 39  1  0  0  0  0
 19 40  1  0  0  0  0
 22 41  1  0  0  0  0
 23 42  1  0  0  0  0
 23 43  1  0  0  0  0
 23 44  1  0  0  0  0
 26 45  1  0  0  0  0
 27 46  1  0  0  0  0
 28 47  1  0  0  0  0
 28 48  1  0  0  0  0
 29 49  1  0  0  0  0
 29 50  1  0  0  0  0
M  END
> <Name>
29

> <IC50[uM]>
0.18

$$$$
29
  -OEChem-05192314333D
 Structure written by MMmdl.
 50 54  0     1  0  0  0  0  0999 V2000
   -6.3727   12.3493  -11.9877 C   0  0  0  0  0  0  0  0  0  0  0  0
   -6.5190   11.8167  -10.7261 C   0  0  0  0  0  0  0  0  0  0  0  0
   -7.6919   10.5755  -13.0077 C   0  0  0  0  0  0  0  0  0  0  0  0
   -6.9476   11.7646  -13.1157 C   0  0  0  0  0  0  0  0  0  0  0  0
   -7.8131   10.0080  -11.7494 C   0  0  0  0  0  0  0  0  0  0  0  0
   -7.2399   10.6155  -10.5946 C   0  0  3  0  0  0  0  0  0  0  0  0
   -7.6088    9.7430   -9.5107 C   0  0  0  0  0  0  0  0  0  0  0  0
   -8.2764    8.7286   -9.9647 N   0  0  0  0  0  0  0  0  0  0  0  0
   -8.4188    8.8758  -11.2882 N   0  0  0  0  0  0  0  0  0  0  0  0
   -7.3326    9.8988   -8.0180 C   0  0  0  0  0  0  0  0  0  0  0  0
   -5.4060   13.8057  -12.2007 S   0  0  0  0  0  0  0  0  0  0  0  0
   -5.9763   10.4855   -7.7248 C   0  0  0  0  0  0  0  0  0  0  0  0
   -5.8692   11.7523   -7.1523 C   0  0  0  0  0  0  0  0  0  0  0  0
   -4.6115   12.3005   -6.8946 C   0  0  0  0  0  0  0  0  0  0  0  0
   -3.4415   11.5837   -7.2014 C   0  0  0  0  0  0  0  0  0  0  0  0
   -3.5677   10.3182   -7.7642 C   0  0  0  0  0  0  0  0  0  0  0  0
   -4.8209    9.7630   -8.0308 C   0  0  0  0  0  0  0  0  0  0  0  0
   -2.1027   12.1584   -6.9334 C   0  0  0  0  0  0  0  0  0  0  0  0
   -1.7604   13.4248   -6.4226 C   0  0  0  0  0  0  0  0  0  0  0  0
   -0.4260   13.4533   -6.3925 N   0  0  0  0  0  0  0  0  0  0  0  0
    0.1594   12.3444   -6.7934 N   0  0  0  0  0  0  0  0  0  0  0  0
   -0.8210   11.5507   -7.1379 C   0  0  0  0  0  0  0  0  0  0  0  0
    0.4194   14.5816   -5.9703 C   0  0  0  0  0  0  0  0  0  0  0  0
   -4.4605   13.4170  -13.2280 O   0  0  0  0  0  0  0  0  0  0  0  0
   -6.3362   14.9020  -12.4291 O   0  0  0  0  0  0  0  0  0  0  0  0
   -4.5495   14.1196  -10.6911 N   0  0  0  0  0  0  0  0  0  0  0  0
   -3.3000   13.4420  -10.3686 C   0  0  0  0  0  0  0  0  0  0  0  0
   -2.0717   13.9935  -11.0748 C   0  0  0  0  0  0  0  0  0  0  0  0
   -2.2627   14.2439   -9.6094 C   0  0  0  0  0  0  0  0  0  0  0  0
   -6.0929   12.3066   -9.8631 H   0  0  0  0  0  0  0  0  0  0  0  0
   -8.1517   10.1219  -13.8733 H   0  0  0  0  0  0  0  0  0  0  0  0
   -7.6202   12.5178  -13.5518 H   0  0  0  0  0  0  0  0  0  0  0  0
   -6.1251   11.5580  -13.8163 H   0  0  0  0  0  0  0  0  0  0  0  0
   -6.3149   10.0400  -10.7471 H   0  0  0  0  0  0  0  0  0  0  0  0
   -8.0377    9.6171   -7.2499 H   0  0  0  0  0  0  0  0  0  0  0  0
   -6.7609   12.3104   -6.9078 H   0  0  0  0  0  0  0  0  0  0  0  0
   -4.5365   13.2843   -6.4555 H   0  0  0  0  0  0  0  0  0  0  0  0
   -2.6780    9.7532   -7.9999 H   0  0  0  0  0  0  0  0  0  0  0  0
   -4.8963    8.7799   -8.4714 H   0  0  0  0  0  0  0  0  0  0  0  0
   -2.4366   14.2100   -6.1184 H   0  0  0  0  0  0  0  0  0  0  0  0
   -0.6813   10.5543   -7.5304 H   0  0  0  0  0  0  0  0  0  0  0  0
    1.4790   14.3012   -6.0627 H   0  0  0  0  0  0  0  0  0  0  0  0
    0.2138   15.4529   -6.6095 H   0  0  0  0  0  0  0  0  0  0  0  0
    0.1971   14.8344   -4.9231 H   0  0  0  0  0  0  0  0  0  0  0  0
   -4.3503   15.0995  -10.6784 H   0  0  0  0  0  0  0  0  0  0  0  0
   -3.3270   12.3575  -10.1868 H   0  0  0  0  0  0  0  0  0  0  0  0
   -1.2811   13.3093  -11.4167 H   0  0  0  0  0  0  0  0  0  0  0  0
   -2.1756   14.8213  -11.7917 H   0  0  0  0  0  0  0  0  0  0  0  0
   -2.5050   15.2560   -9.2530 H   0  0  0  0  0  0  0  0  0  0  0  0
   -1.6106   13.7440   -8.8781 H   0  0  0  0  0  0  0  0  0  0  0  0
  1  2  2  0  0  0  0
  1  4  1  0  0  0  0
  1 11  1  0  0  0  0
  2  6  1  0  0  0  0
  3  4  1  0  0  0  0
  3  5  2  0  0  0  0
  5  6  1  0  0  0  0
  5  9  1  0  0  0  0
  6  7  1  0  0  0  0
  7  8  1  0  0  0  0
  7 10  2  3  0  0  0
  8  9  2  0  0  0  0
 10 12  1  0  0  0  0
 11 24  2  0  0  0  0
 11 25  2  0  0  0  0
 11 26  1  0  0  0  0
 12 13  2  0  0  0  0
 12 17  1  0  0  0  0
 13 14  1  0  0  0  0
 14 15  2  0  0  0  0
 15 16  1  0  0  0  0
 15 18  1  0  0  0  0
 16 17  2  0  0  0  0
 18 19  2  0  0  0  0
 18 22  1  0  0  0  0
 19 20  1  0  0  0  0
 20 21  1  0  0  0  0
 20 23  1  0  0  0  0
 21 22  2  0  0  0  0
 26 27  1  0  0  0  0
 27 28  1  0  0  0  0
 27 29  1  0  0  0  0
 28 29  1  0  0  0  0
  2 30  1  0  0  0  0
  3 31  1  0  0  0  0
  4 32  1  0  0  0  0
  4 33  1  0  0  0  0
  6 34  1  0  0  0  0
 10 35  1  0  0  0  0
 13 36  1  0  0  0  0
 14 37  1  0  0  0  0
 16 38  1  0  0  0  0
 17 39  1  0  0  0  0
 19 40  1  0  0  0  0
 22 41  1  0  0  0  0
 23 42  1  0  0  0  0
 23 43  1  0  0  0  0
 23 44  1  0  0  0  0
 26 45  1  0  0  0  0
 27 46  1  0  0  0  0
 28 47  1  0  0  0  0
 28 48  1  0  0  0  0
 29 49  1  0  0  0  0
 29 50  1  0  0  0  0
M  END
> <Name>
29

> <IC50[uM]>
0.18

$$$$
29
  -OEChem-05192314333D
 Structure written by MMmdl.
 50 54  0     0  0  0  0  0  0999 V2000
   -6.3727   12.3493  -11.9877 C   0  0  0  0  0  0  0  0  0  0  0  0
   -6.5190   11.8167  -10.7261 C   0  0  0  0  0  0  0  0  0  0  0  0
   -7.6919   10.5755  -13.0077 C   0  0  0  0  0  0  0  0  0  0  0  0
   -6.9476   11.7646  -13.1157 C   0  0  0  0  0  0  0  0  0  0  0  0
   -7.8131   10.0080  -11.7494 C   0  0  0  0  0  0  0  0  0  0  0  0
   -7.2399   10.6155  -10.5946 C   0  0  0  0  0  0  0  0  0  0  0  0
   -7.6088    9.7430   -9.5107 C   0  0  0  0  0  0  0  0  0  0  0  0
   -8.2764    8.7286   -9.9647 N   0  0  0  0  0  0  0  0  0  0  0  0
   -8.4188    8.8758  -11.2882 N   0  0  0  0  0  0  0  0  0  0  0  0
   -7.3326    9.8988   -8.0180 C   0  0  0  0  0  0  0  0  0  0  0  0
   -5.4060   13.8057  -12.2007 S   0  0  0  0  0  0  0  0  0  0  0  0
   -5.9763   10.4855   -7.7248 C   0  0  0  0  0  0  0  0  0  0  0  0
   -5.8692   11.7523   -7.1523 C   0  0  0  0  0  0  0  0  0  0  0  0
   -4.6115   12.3005   -6.8946 C   0  0  0  0  0  0  0  0  0  0  0  0
   -3.4415   11.5837   -7.2014 C   0  0  0  0  0  0  0  0  0  0  0  0
   -3.5677   10.3182   -7.7642 C   0  0  0  0  0  0  0  0  0  0  0  0
   -4.8209    9.7630   -8.0308 C   0  0  0  0  0  0  0  0  0  0  0  0
   -2.1027   12.1584   -6.9334 C   0  0  0  0  0  0  0  0  0  0  0  0
   -1.7604   13.4248   -6.4226 C   0  0  0  0  0  0  0  0  0  0  0  0
   -0.4260   13.4533   -6.3925 N   0  0  0  0  0  0  0  0  0  0  0  0
    0.1594   12.3444   -6.7934 N   0  0  0  0  0  0  0  0  0  0  0  0
   -0.8210   11.5507   -7.1379 C   0  0  0  0  0  0  0  0  0  0  0  0
    0.4194   14.5816   -5.9703 C   0  0  0  0  0  0  0  0  0  0  0  0
   -4.4605   13.4170  -13.2280 O   0  0  0  0  0  0  0  0  0  0  0  0
   -6.3362   14.9020  -12.4291 O   0  0  0  0  0  0  0  0  0  0  0  0
   -4.5495   14.1196  -10.6911 N   0  0  0  0  0  0  0  0  0  0  0  0
   -3.3000   13.4420  -10.3686 C   0  0  0  0  0  0  0  0  0  0  0  0
   -2.0717   13.9935  -11.0748 C   0  0  0  0  0  0  0  0  0  0  0  0
   -2.2627   14.2439   -9.6094 C   0  0  0  0  0  0  0  0  0  0  0  0
   -6.0929   12.3066   -9.8631 H   0  0  0  0  0  0  0  0  0  0  0  0
   -8.7077   10.7885  -13.3722 H   0  0  0  0  0  0  0  0  0  0  0  0
   -7.2168    9.8291  -13.6613 H   0  0  0  0  0  0  0  0  0  0  0  0
   -7.6202   12.5178  -13.5518 H   0  0  0  0  0  0  0  0  0  0  0  0
   -6.1251   11.5580  -13.8163 H   0  0  0  0  0  0  0  0  0  0  0  0
   -8.0377    9.6171   -7.2499 H   0  0  0  0  0  0  0  0  0  0  0  0
   -6.7609   12.3104   -6.9078 H   0  0  0  0  0  0  0  0  0  0  0  0
   -4.5365   13.2843   -6.4555 H   0  0  0  0  0  0  0  0  0  0  0  0
   -2.6780    9.7532   -7.9999 H   0  0  0  0  0  0  0  0  0  0  0  0
   -4.8963    8.7799   -8.4714 H   0  0  0  0  0  0  0  0  0  0  0  0
   -2.4366   14.2100   -6.1184 H   0  0  0  0  0  0  0  0  0  0  0  0
   -0.6813   10.5543   -7.5304 H   0  0  0  0  0  0  0  0  0  0  0  0
    1.4790   14.3012   -6.0627 H   0  0  0  0  0  0  0  0  0  0  0  0
    0.2138   15.4529   -6.6095 H   0  0  0  0  0  0  0  0  0  0  0  0
    0.1971   14.8344   -4.9231 H   0  0  0  0  0  0  0  0  0  0  0  0
   -4.3503   15.0995  -10.6784 H   0  0  0  0  0  0  0  0  0  0  0  0
   -3.3270   12.3575  -10.1868 H   0  0  0  0  0  0  0  0  0  0  0  0
   -1.2811   13.3093  -11.4167 H   0  0  0  0  0  0  0  0  0  0  0  0
   -2.1756   14.8213  -11.7917 H   0  0  0  0  0  0  0  0  0  0  0  0
   -2.5050   15.2560   -9.2530 H   0  0  0  0  0  0  0  0  0  0  0  0
   -1.6106   13.7440   -8.8781 H   0  0  0  0  0  0  0  0  0  0  0  0
  1  2  2  0  0  0  0
  1  4  1  0  0  0  0
  1 11  1  0  0  0  0
  2  6  1  0  0  0  0
  3  4  1  0  0  0  0
  3  5  1  0  0  0  0
  5  6  2  0  0  0  0
  5  9  1  0  0  0  0
  6  7  1  0  0  0  0
  7  8  1  0  0  0  0
  7 10  2  3  0  0  0
  8  9  2  0  0  0  0
 10 12  1  0  0  0  0
 11 24  2  0  0  0  0
 11 25  2  0  0  0  0
 11 26  1  0  0  0  0
 12 13  2  0  0  0  0
 12 17  1  0  0  0  0
 13 14  1  0  0  0  0
 14 15  2  0  0  0  0
 15 16  1  0  0  0  0
 15 18  1  0  0  0  0
 16 17  2  0  0  0  0
 18 19  2  0  0  0  0
 18 22  1  0  0  0  0
 19 20  1  0  0  0  0
 20 21  1  0  0  0  0
 20 23  1  0  0  0  0
 21 22  2  0  0  0  0
 26 27  1  0  0  0  0
 27 28  1  0  0  0  0
 27 29  1  0  0  0  0
 28 29  1  0  0  0  0
  2 30  1  0  0  0  0
  3 31  1  0  0  0  0
  3 32  1  0  0  0  0
  4 33  1  0  0  0  0
  4 34  1  0  0  0  0
 10 35  1  0  0  0  0
 13 36  1  0  0  0  0
 14 37  1  0  0  0  0
 16 38  1  0  0  0  0
 17 39  1  0  0  0  0
 19 40  1  0  0  0  0
 22 41  1  0  0  0  0
 23 42  1  0  0  0  0
 23 43  1  0  0  0  0
 23 44  1  0  0  0  0
 26 45  1  0  0  0  0
 27 46  1  0  0  0  0
 28 47  1  0  0  0  0
 28 48  1  0  0  0  0
 29 49  1  0  0  0  0
 29 50  1  0  0  0  0
M  END
> <Name>
29

> <IC50[uM]>
0.18

$$$$
29
  -OEChem-05192314333D
 Structure written by MMmdl.
 50 54  0     1  0  0  0  0  0999 V2000
   -6.3727   12.3493  -11.9877 C   0  0  0  0  0  0  0  0  0  0  0  0
   -6.5190   11.8167  -10.7261 C   0  0  0  0  0  0  0  0  0  0  0  0
   -7.6919   10.5755  -13.0077 C   0  0  0  0  0  0  0  0  0  0  0  0
   -6.9476   11.7646  -13.1157 C   0  0  0  0  0  0  0  0  0  0  0  0
   -7.8131   10.0080  -11.7494 C   0  0  3  0  0  0  0  0  0  0  0  0
   -7.2399   10.6155  -10.5946 C   0  0  0  0  0  0  0  0  0  0  0  0
   -7.6088    9.7430   -9.5107 C   0  0  0  0  0  0  0  0  0  0  0  0
   -8.2764    8.7286   -9.9647 N   0  0  0  0  0  0  0  0  0  0  0  0
   -8.4188    8.8758  -11.2882 N   0  0  0  0  0  0  0  0  0  0  0  0
   -7.3326    9.8988   -8.0180 C   0  0  0  0  0  0  0  0  0  0  0  0
   -5.4060   13.8057  -12.2007 S   0  0  0  0  0  0  0  0  0  0  0  0
   -5.9763   10.4855   -7.7248 C   0  0  0  0  0  0  0  0  0  0  0  0
   -5.8692   11.7523   -7.1523 C   0  0  0  0  0  0  0  0  0  0  0  0
   -4.6115   12.3005   -6.8946 C   0  0  0  0  0  0  0  0  0  0  0  0
   -3.4415   11.5837   -7.2014 C   0  0  0  0  0  0  0  0  0  0  0  0
   -3.5677   10.3182   -7.7642 C   0  0  0  0  0  0  0  0  0  0  0  0
   -4.8209    9.7630   -8.0308 C   0  0  0  0  0  0  0  0  0  0  0  0
   -2.1027   12.1584   -6.9334 C   0  0  0  0  0  0  0  0  0  0  0  0
   -1.7604   13.4248   -6.4226 C   0  0  0  0  0  0  0  0  0  0  0  0
   -0.4260   13.4533   -6.3925 N   0  0  0  0  0  0  0  0  0  0  0  0
    0.1594   12.3444   -6.7934 N   0  0  0  0  0  0  0  0  0  0  0  0
   -0.8210   11.5507   -7.1379 C   0  0  0  0  0  0  0  0  0  0  0  0
    0.4194   14.5816   -5.9703 C   0  0  0  0  0  0  0  0  0  0  0  0
   -4.4605   13.4170  -13.2280 O   0  0  0  0  0  0  0  0  0  0  0  0
   -6.3362   14.9020  -12.4291 O   0  0  0  0  0  0  0  0  0  0  0  0
   -4.5495   14.1196  -10.6911 N   0  0  0  0  0  0  0  0  0  0  0  0
   -3.3000   13.4420  -10.3686 C   0  0  0  0  0  0  0  0  0  0  0  0
   -2.0717   13.9935  -11.0748 C   0  0  0  0  0  0  0  0  0  0  0  0
   -2.2627   14.2439   -9.6094 C   0  0  0  0  0  0  0  0  0  0  0  0
   -6.0929   12.3066   -9.8631 H   0  0  0  0  0  0  0  0  0  0  0  0
   -8.1517   10.1219  -13.8733 H   0  0  0  0  0  0  0  0  0  0  0  0
   -6.8202   12.2294  -14.0822 H   0  0  0  0  0  0  0  0  0  0  0  0
   -6.8834    9.4437  -11.9142 H   0  0  0  0  0  0  0  0  0  0  0  0
   -8.0999   10.5589   -7.5873 H   0  0  0  0  0  0  0  0  0  0  0  0
   -7.3945    8.9074   -7.5454 H   0  0  0  0  0  0  0  0  0  0  0  0
   -6.7609   12.3104   -6.9078 H   0  0  0  0  0  0  0  0  0  0  0  0
   -4.5365   13.2843   -6.4555 H   0  0  0  0  0  0  0  0  0  0  0  0
   -2.6780    9.7532   -7.9999 H   0  0  0  0  0  0  0  0  0  0  0  0
   -4.8963    8.7799   -8.4714 H   0  0  0  0  0  0  0  0  0  0  0  0
   -2.4366   14.2100   -6.1184 H   0  0  0  0  0  0  0  0  0  0  0  0
   -0.6813   10.5543   -7.5304 H   0  0  0  0  0  0  0  0  0  0  0  0
    1.4790   14.3012   -6.0627 H   0  0  0  0  0  0  0  0  0  0  0  0
    0.2138   15.4529   -6.6095 H   0  0  0  0  0  0  0  0  0  0  0  0
    0.1971   14.8344   -4.9231 H   0  0  0  0  0  0  0  0  0  0  0  0
   -4.3503   15.0995  -10.6784 H   0  0  0  0  0  0  0  0  0  0  0  0
   -3.3270   12.3575  -10.1868 H   0  0  0  0  0  0  0  0  0  0  0  0
   -1.2811   13.3093  -11.4167 H   0  0  0  0  0  0  0  0  0  0  0  0
   -2.1756   14.8213  -11.7917 H   0  0  0  0  0  0  0  0  0  0  0  0
   -2.5050   15.2560   -9.2530 H   0  0  0  0  0  0  0  0  0  0  0  0
   -1.6106   13.7440   -8.8781 H   0  0  0  0  0  0  0  0  0  0  0  0
  1  2  2  0  0  0  0
  1  4  1  0  0  0  0
  1 11  1  0  0  0  0
  2  6  1  0  0  0  0
  3  4  2  0  0  0  0
  3  5  1  0  0  0  0
  5  6  1  0  0  0  0
  5  9  1  0  0  0  0
  6  7  2  0  0  0  0
  7  8  1  0  0  0  0
  7 10  1  0  0  0  0
  8  9  2  0  0  0  0
 10 12  1  0  0  0  0
 11 24  2  0  0  0  0
 11 25  2  0  0  0  0
 11 26  1  0  0  0  0
 12 13  2  0  0  0  0
 12 17  1  0  0  0  0
 13 14  1  0  0  0  0
 14 15  2  0  0  0  0
 15 16  1  0  0  0  0
 15 18  1  0  0  0  0
 16 17  2  0  0  0  0
 18 19  2  0  0  0  0
 18 22  1  0  0  0  0
 19 20  1  0  0  0  0
 20 21  1  0  0  0  0
 20 23  1  0  0  0  0
 21 22  2  0  0  0  0
 26 27  1  0  0  0  0
 27 28  1  0  0  0  0
 27 29  1  0  0  0  0
 28 29  1  0  0  0  0
  2 30  1  0  0  0  0
  3 31  1  0  0  0  0
  4 32  1  0  0  0  0
  5 33  1  0  0  0  0
 10 34  1  0  0  0  0
 10 35  1  0  0  0  0
 13 36  1  0  0  0  0
 14 37  1  0  0  0  0
 16 38  1  0  0  0  0
 17 39  1  0  0  0  0
 19 40  1  0  0  0  0
 22 41  1  0  0  0  0
 23 42  1  0  0  0  0
 23 43  1  0  0  0  0
 23 44  1  0  0  0  0
 26 45  1  0  0  0  0
 27 46  1  0  0  0  0
 28 47  1  0  0  0  0
 28 48  1  0  0  0  0
 29 49  1  0  0  0  0
 29 50  1  0  0  0  0
M  END
> <Name>
29

> <IC50[uM]>
0.18

$$$$
29
  -OEChem-05192314333D
 Structure written by MMmdl.
 50 54  0     0  0  0  0  0  0999 V2000
   -6.3727   12.3493  -11.9877 C   0  0  0  0  0  0  0  0  0  0  0  0
   -6.5190   11.8167  -10.7261 C   0  0  0  0  0  0  0  0  0  0  0  0
   -7.6919   10.5755  -13.0077 C   0  0  0  0  0  0  0  0  0  0  0  0
   -6.9476   11.7646  -13.1157 C   0  0  0  0  0  0  0  0  0  0  0  0
   -7.8131   10.0080  -11.7494 C   0  0  0  0  0  0  0  0  0  0  0  0
   -7.2399   10.6155  -10.5946 C   0  0  0  0  0  0  0  0  0  0  0  0
   -7.6088    9.7430   -9.5107 C   0  0  0  0  0  0  0  0  0  0  0  0
   -8.2764    8.7286   -9.9647 N   0  0  0  0  0  0  0  0  0  0  0  0
   -8.4188    8.8758  -11.2882 N   0  0  0  0  0  0  0  0  0  0  0  0
   -7.3326    9.8988   -8.0180 C   0  0  0  0  0  0  0  0  0  0  0  0
   -5.4060   13.8057  -12.2007 S   0  0  0  0  0  0  0  0  0  0  0  0
   -5.9763   10.4855   -7.7248 C   0  0  0  0  0  0  0  0  0  0  0  0
   -5.8692   11.7523   -7.1523 C   0  0  0  0  0  0  0  0  0  0  0  0
   -4.6115   12.3005   -6.8946 C   0  0  0  0  0  0  0  0  0  0  0  0
   -3.4415   11.5837   -7.2014 C   0  0  0  0  0  0  0  0  0  0  0  0
   -3.5677   10.3182   -7.7642 C   0  0  0  0  0  0  0  0  0  0  0  0
   -4.8209    9.7630   -8.0308 C   0  0  0  0  0  0  0  0  0  0  0  0
   -2.1027   12.1584   -6.9334 C   0  0  0  0  0  0  0  0  0  0  0  0
   -1.7604   13.4248   -6.4226 C   0  0  0  0  0  0  0  0  0  0  0  0
   -0.4260   13.4533   -6.3925 N   0  0  0  0  0  0  0  0  0  0  0  0
    0.1594   12.3444   -6.7934 N   0  0  0  0  0  0  0  0  0  0  0  0
   -0.8210   11.5507   -7.1379 C   0  0  0  0  0  0  0  0  0  0  0  0
    0.4194   14.5816   -5.9703 C   0  0  0  0  0  0  0  0  0  0  0  0
   -4.4605   13.4170  -13.2280 O   0  0  0  0  0  0  0  0  0  0  0  0
   -6.3362   14.9020  -12.4291 O   0  0  0  0  0  0  0  0  0  0  0  0
   -4.5495   14.1196  -10.6911 N   0  0  0  0  0  0  0  0  0  0  0  0
   -3.3000   13.4420  -10.3686 C   0  0  0  0  0  0  0  0  0  0  0  0
   -2.0717   13.9935  -11.0748 C   0  0  0  0  0  0  0  0  0  0  0  0
   -2.2627   14.2439   -9.6094 C   0  0  0  0  0  0  0  0  0  0  0  0
   -6.0929   12.3066   -9.8631 H   0  0  0  0  0  0  0  0  0  0  0  0
   -8.1517   10.1219  -13.8733 H   0  0  0  0  0  0  0  0  0  0  0  0
   -7.6202   12.5178  -13.5518 H   0  0  0  0  0  0  0  0  0  0  0  0
   -6.1251   11.5580  -13.8163 H   0  0  0  0  0  0  0  0  0  0  0  0
   -8.0999   10.5589   -7.5873 H   0  0  0  0  0  0  0  0  0  0  0  0
   -7.3945    8.9074   -7.5454 H   0  0  0  0  0  0  0  0  0  0  0  0
   -6.7609   12.3104   -6.9078 H   0  0  0  0  0  0  0  0  0  0  0  0
   -4.5365   13.2843   -6.4555 H   0  0  0  0  0  0  0  0  0  0  0  0
   -2.6780    9.7532   -7.9999 H   0  0  0  0  0  0  0  0  0  0  0  0
   -4.8963    8.7799   -8.4714 H   0  0  0  0  0  0  0  0  0  0  0  0
   -2.4366   14.2100   -6.1184 H   0  0  0  0  0  0  0  0  0  0  0  0
   -0.6813   10.5543   -7.5304 H   0  0  0  0  0  0  0  0  0  0  0  0
    1.4790   14.3012   -6.0627 H   0  0  0  0  0  0  0  0  0  0  0  0
    0.2138   15.4529   -6.6095 H   0  0  0  0  0  0  0  0  0  0  0  0
    0.1971   14.8344   -4.9231 H   0  0  0  0  0  0  0  0  0  0  0  0
   -4.3503   15.0995  -10.6784 H   0  0  0  0  0  0  0  0  0  0  0  0
   -3.3270   12.3575  -10.1868 H   0  0  0  0  0  0  0  0  0  0  0  0
   -1.2811   13.3093  -11.4167 H   0  0  0  0  0  0  0  0  0  0  0  0
   -2.1756   14.8213  -11.7917 H   0  0  0  0  0  0  0  0  0  0  0  0
   -2.5050   15.2560   -9.2530 H   0  0  0  0  0  0  0  0  0  0  0  0
   -1.6106   13.7440   -8.8781 H   0  0  0  0  0  0  0  0  0  0  0  0
  1  2  2  0  0  0  0
  1  4  1  0  0  0  0
  1 11  1  0  0  0  0
  2  6  1  0  0  0  0
  3  4  1  0  0  0  0
  3  5  2  0  0  0  0
  5  6  1  0  0  0  0
  5  9  1  0  0  0  0
  6  7  2  0  0  0  0
  7  8  1  0  0  0  0
  7 10  1  0  0  0  0
  8  9  2  0  0  0  0
 10 12  1  0  0  0  0
 11 24  2  0  0  0  0
 11 25  2  0  0  0  0
 11 26  1  0  0  0  0
 12 13  2  0  0  0  0
 12 17  1  0  0  0  0
 13 14  1  0  0  0  0
 14 15  2  0  0  0  0
 15 16  1  0  0  0  0
 15 18  1  0  0  0  0
 16 17  2  0  0  0  0
 18 19  2  0  0  0  0
 18 22  1  0  0  0  0
 19 20  1  0  0  0  0
 20 21  1  0  0  0  0
 20 23  1  0  0  0  0
 21 22  2  0  0  0  0
 26 27  1  0  0  0  0
 27 28  1  0  0  0  0
 27 29  1  0  0  0  0
 28 29  1  0  0  0  0
  2 30  1  0  0  0  0
  3 31  1  0  0  0  0
  4 32  1  0  0  0  0
  4 33  1  0  0  0  0
 10 34  1  0  0  0  0
 10 35  1  0  0  0  0
 13 36  1  0  0  0  0
 14 37  1  0  0  0  0
 16 38  1  0  0  0  0
 17 39  1  0  0  0  0
 19 40  1  0  0  0  0
 22 41  1  0  0  0  0
 23 42  1  0  0  0  0
 23 43  1  0  0  0  0
 23 44  1  0  0  0  0
 26 45  1  0  0  0  0
 27 46  1  0  0  0  0
 28 47  1  0  0  0  0
 28 48  1  0  0  0  0
 29 49  1  0  0  0  0
 29 50  1  0  0  0  0
M  END
> <Name>
29

> <IC50[uM]>
0.18

$$$$
29
  -OEChem-05192314333D
 Structure written by MMmdl.
 50 54  0     1  0  0  0  0  0999 V2000
   -6.3727   12.3493  -11.9877 C   0  0  3  0  0  0  0  0  0  0  0  0
   -6.5190   11.8167  -10.7261 C   0  0  0  0  0  0  0  0  0  0  0  0
   -7.6919   10.5755  -13.0077 C   0  0  0  0  0  0  0  0  0  0  0  0
   -6.9476   11.7646  -13.1157 C   0  0  0  0  0  0  0  0  0  0  0  0
   -7.8131   10.0080  -11.7494 C   0  0  0  0  0  0  0  0  0  0  0  0
   -7.2399   10.6155  -10.5946 C   0  0  0  0  0  0  0  0  0  0  0  0
   -7.6088    9.7430   -9.5107 C   0  0  0  0  0  0  0  0  0  0  0  0
   -8.2764    8.7286   -9.9647 N   0  0  0  0  0  0  0  0  0  0  0  0
   -8.4188    8.8758  -11.2882 N   0  0  0  0  0  0  0  0  0  0  0  0
   -7.3326    9.8988   -8.0180 C   0  0  0  0  0  0  0  0  0  0  0  0
   -5.4060   13.8057  -12.2007 S   0  0  0  0  0  0  0  0  0  0  0  0
   -5.9763   10.4855   -7.7248 C   0  0  0  0  0  0  0  0  0  0  0  0
   -5.8692   11.7523   -7.1523 C   0  0  0  0  0  0  0  0  0  0  0  0
   -4.6115   12.3005   -6.8946 C   0  0  0  0  0  0  0  0  0  0  0  0
   -3.4415   11.5837   -7.2014 C   0  0  0  0  0  0  0  0  0  0  0  0
   -3.5677   10.3182   -7.7642 C   0  0  0  0  0  0  0  0  0  0  0  0
   -4.8209    9.7630   -8.0308 C   0  0  0  0  0  0  0  0  0  0  0  0
   -2.1027   12.1584   -6.9334 C   0  0  0  0  0  0  0  0  0  0  0  0
   -1.7604   13.4248   -6.4226 C   0  0  0  0  0  0  0  0  0  0  0  0
   -0.4260   13.4533   -6.3925 N   0  0  0  0  0  0  0  0  0  0  0  0
    0.1594   12.3444   -6.7934 N   0  0  0  0  0  0  0  0  0  0  0  0
   -0.8210   11.5507   -7.1379 C   0  0  0  0  0  0  0  0  0  0  0  0
    0.4194   14.5816   -5.9703 C   0  0  0  0  0  0  0  0  0  0  0  0
   -4.4605   13.4170  -13.2280 O   0  0  0  0  0  0  0  0  0  0  0  0
   -6.3362   14.9020  -12.4291 O   0  0  0  0  0  0  0  0  0  0  0  0
   -4.5495   14.1196  -10.6911 N   0  0  0  0  0  0  0  0  0  0  0  0
   -3.3000   13.4420  -10.3686 C   0  0  0  0  0  0  0  0  0  0  0  0
   -2.0717   13.9935  -11.0748 C   0  0  0  0  0  0  0  0  0  0  0  0
   -2.2627   14.2439   -9.6094 C   0  0  0  0  0  0  0  0  0  0  0  0
   -7.2734   12.9632  -11.8395 H   0  0  0  0  0  0  0  0  0  0  0  0
   -5.5094   11.6373  -10.3279 H   0  0  0  0  0  0  0  0  0  0  0  0
   -7.0275   12.5723  -10.1093 H   0  0  0  0  0  0  0  0  0  0  0  0
   -8.1517   10.1219  -13.8733 H   0  0  0  0  0  0  0  0  0  0  0  0
   -6.8202   12.2294  -14.0822 H   0  0  0  0  0  0  0  0  0  0  0  0
   -8.0377    9.6171   -7.2499 H   0  0  0  0  0  0  0  0  0  0  0  0
   -6.7609   12.3104   -6.9078 H   0  0  0  0  0  0  0  0  0  0  0  0
   -4.5365   13.2843   -6.4555 H   0  0  0  0  0  0  0  0  0  0  0  0
   -2.6780    9.7532   -7.9999 H   0  0  0  0  0  0  0  0  0  0  0  0
   -4.8963    8.7799   -8.4714 H   0  0  0  0  0  0  0  0  0  0  0  0
   -2.4366   14.2100   -6.1184 H   0  0  0  0  0  0  0  0  0  0  0  0
   -0.6813   10.5543   -7.5304 H   0  0  0  0  0  0  0  0  0  0  0  0
    1.4790   14.3012   -6.0627 H   0  0  0  0  0  0  0  0  0  0  0  0
    0.2138   15.4529   -6.6095 H   0  0  0  0  0  0  0  0  0  0  0  0
    0.1971   14.8344   -4.9231 H   0  0  0  0  0  0  0  0  0  0  0  0
   -4.3503   15.0995  -10.6784 H   0  0  0  0  0  0  0  0  0  0  0  0
   -3.3270   12.3575  -10.1868 H   0  0  0  0  0  0  0  0  0  0  0  0
   -1.2811   13.3093  -11.4167 H   0  0  0  0  0  0  0  0  0  0  0  0
   -2.1756   14.8213  -11.7917 H   0  0  0  0  0  0  0  0  0  0  0  0
   -2.5050   15.2560   -9.2530 H   0  0  0  0  0  0  0  0  0  0  0  0
   -1.6106   13.7440   -8.8781 H   0  0  0  0  0  0  0  0  0  0  0  0
  1  2  1  0  0  0  0
  1  4  1  0  0  0  0
  1 11  1  0  0  0  0
  2  6  1  0  0  0  0
  3  4  2  0  0  0  0
  3  5  1  0  0  0  0
  5  6  2  0  0  0  0
  5  9  1  0  0  0  0
  6  7  1  0  0  0  0
  7  8  1  0  0  0  0
  7 10  2  3  0  0  0
  8  9  2  0  0  0  0
 10 12  1  0  0  0  0
 11 24  2  0  0  0  0
 11 25  2  0  0  0  0
 11 26  1  0  0  0  0
 12 13  2  0  0  0  0
 12 17  1  0  0  0  0
 13 14  1  0  0  0  0
 14 15  2  0  0  0  0
 15 16  1  0  0  0  0
 15 18  1  0  0  0  0
 16 17  2  0  0  0  0
 18 19  2  0  0  0  0
 18 22  1  0  0  0  0
 19 20  1  0  0  0  0
 20 21  1  0  0  0  0
 20 23  1  0  0  0  0
 21 22  2  0  0  0  0
 26 27  1  0  0  0  0
 27 28  1  0  0  0  0
 27 29  1  0  0  0  0
 28 29  1  0  0  0  0
  1 30  1  0  0  0  0
  2 31  1  0  0  0  0
  2 32  1  0  0  0  0
  3 33  1  0  0  0  0
  4 34  1  0  0  0  0
 10 35  1  0  0  0  0
 13 36  1  0  0  0  0
 14 37  1  0  0  0  0
 16 38  1  0  0  0  0
 17 39  1  0  0  0  0
 19 40  1  0  0  0  0
 22 41  1  0  0  0  0
 23 42  1  0  0  0  0
 23 43  1  0  0  0  0
 23 44  1  0  0  0  0
 26 45  1  0  0  0  0
 27 46  1  0  0  0  0
 28 47  1  0  0  0  0
 28 48  1  0  0  0  0
 29 49  1  0  0  0  0
 29 50  1  0  0  0  0
M  END
> <Name>
29

> <IC50[uM]>
0.18

$$$$
29
  -OEChem-05192314333D
 Structure written by MMmdl.
 50 54  0     1  0  0  0  0  0999 V2000
   -6.3727   12.3493  -11.9877 C   0  0  0  0  0  0  0  0  0  0  0  0
   -6.5190   11.8167  -10.7261 C   0  0  0  0  0  0  0  0  0  0  0  0
   -7.6919   10.5755  -13.0077 C   0  0  0  0  0  0  0  0  0  0  0  0
   -6.9476   11.7646  -13.1157 C   0  0  0  0  0  0  0  0  0  0  0  0
   -7.8131   10.0080  -11.7494 C   0  0  0  0  0  0  0  0  0  0  0  0
   -7.2399   10.6155  -10.5946 C   0  0  3  0  0  0  0  0  0  0  0  0
   -7.6088    9.7430   -9.5107 C   0  0  0  0  0  0  0  0  0  0  0  0
   -8.2764    8.7286   -9.9647 N   0  0  0  0  0  0  0  0  0  0  0  0
   -8.4188    8.8758  -11.2882 N   0  0  0  0  0  0  0  0  0  0  0  0
   -7.3326    9.8988   -8.0180 C   0  0  0  0  0  0  0  0  0  0  0  0
   -5.4060   13.8057  -12.2007 S   0  0  0  0  0  0  0  0  0  0  0  0
   -5.9763   10.4855   -7.7248 C   0  0  0  0  0  0  0  0  0  0  0  0
   -5.8692   11.7523   -7.1523 C   0  0  0  0  0  0  0  0  0  0  0  0
   -4.6115   12.3005   -6.8946 C   0  0  0  0  0  0  0  0  0  0  0  0
   -3.4415   11.5837   -7.2014 C   0  0  0  0  0  0  0  0  0  0  0  0
   -3.5677   10.3182   -7.7642 C   0  0  0  0  0  0  0  0  0  0  0  0
   -4.8209    9.7630   -8.0308 C   0  0  0  0  0  0  0  0  0  0  0  0
   -2.1027   12.1584   -6.9334 C   0  0  0  0  0  0  0  0  0  0  0  0
   -1.7604   13.4248   -6.4226 C   0  0  0  0  0  0  0  0  0  0  0  0
   -0.4260   13.4533   -6.3925 N   0  0  0  0  0  0  0  0  0  0  0  0
    0.1594   12.3444   -6.7934 N   0  0  0  0  0  0  0  0  0  0  0  0
   -0.8210   11.5507   -7.1379 C   0  0  0  0  0  0  0  0  0  0  0  0
    0.4194   14.5816   -5.9703 C   0  0  0  0  0  0  0  0  0  0  0  0
   -4.4605   13.4170  -13.2280 O   0  0  0  0  0  0  0  0  0  0  0  0
   -6.3362   14.9020  -12.4291 O   0  0  0  0  0  0  0  0  0  0  0  0
   -4.5495   14.1196  -10.6911 N   0  0  0  0  0  0  0  0  0  0  0  0
   -3.3000   13.4420  -10.3686 C   0  0  0  0  0  0  0  0  0  0  0  0
   -2.0717   13.9935  -11.0748 C   0  0  0  0  0  0  0  0  0  0  0  0
   -2.2627   14.2439   -9.6094 C   0  0  0  0  0  0  0  0  0  0  0  0
   -5.5094   11.6373  -10.3279 H   0  0  0  0  0  0  0  0  0  0  0  0
   -7.0275   12.5723  -10.1093 H   0  0  0  0  0  0  0  0  0  0  0  0
   -8.1517   10.1219  -13.8733 H   0  0  0  0  0  0  0  0  0  0  0  0
   -6.8202   12.2294  -14.0822 H   0  0  0  0  0  0  0  0  0  0  0  0
   -6.3149   10.0400  -10.7471 H   0  0  0  0  0  0  0  0  0  0  0  0
   -8.0377    9.6171   -7.2499 H   0  0  0  0  0  0  0  0  0  0  0  0
   -6.7609   12.3104   -6.9078 H   0  0  0  0  0  0  0  0  0  0  0  0
   -4.5365   13.2843   -6.4555 H   0  0  0  0  0  0  0  0  0  0  0  0
   -2.6780    9.7532   -7.9999 H   0  0  0  0  0  0  0  0  0  0  0  0
   -4.8963    8.7799   -8.4714 H   0  0  0  0  0  0  0  0  0  0  0  0
   -2.4366   14.2100   -6.1184 H   0  0  0  0  0  0  0  0  0  0  0  0
   -0.6813   10.5543   -7.5304 H   0  0  0  0  0  0  0  0  0  0  0  0
    1.4790   14.3012   -6.0627 H   0  0  0  0  0  0  0  0  0  0  0  0
    0.2138   15.4529   -6.6095 H   0  0  0  0  0  0  0  0  0  0  0  0
    0.1971   14.8344   -4.9231 H   0  0  0  0  0  0  0  0  0  0  0  0
   -4.3503   15.0995  -10.6784 H   0  0  0  0  0  0  0  0  0  0  0  0
   -3.3270   12.3575  -10.1868 H   0  0  0  0  0  0  0  0  0  0  0  0
   -1.2811   13.3093  -11.4167 H   0  0  0  0  0  0  0  0  0  0  0  0
   -2.1756   14.8213  -11.7917 H   0  0  0  0  0  0  0  0  0  0  0  0
   -2.5050   15.2560   -9.2530 H   0  0  0  0  0  0  0  0  0  0  0  0
   -1.6106   13.7440   -8.8781 H   0  0  0  0  0  0  0  0  0  0  0  0
  1  2  1  0  0  0  0
  1  4  2  0  0  0  0
  1 11  1  0  0  0  0
  2  6  1  0  0  0  0
  3  4  1  0  0  0  0
  3  5  2  0  0  0  0
  5  6  1  0  0  0  0
  5  9  1  0  0  0  0
  6  7  1  0  0  0  0
  7  8  1  0  0  0  0
  7 10  2  3  0  0  0
  8  9  2  0  0  0  0
 10 12  1  0  0  0  0
 11 24  2  0  0  0  0
 11 25  2  0  0  0  0
 11 26  1  0  0  0  0
 12 13  2  0  0  0  0
 12 17  1  0  0  0  0
 13 14  1  0  0  0  0
 14 15  2  0  0  0  0
 15 16  1  0  0  0  0
 15 18  1  0  0  0  0
 16 17  2  0  0  0  0
 18 19  2  0  0  0  0
 18 22  1  0  0  0  0
 19 20  1  0  0  0  0
 20 21  1  0  0  0  0
 20 23  1  0  0  0  0
 21 22  2  0  0  0  0
 26 27  1  0  0  0  0
 27 28  1  0  0  0  0
 27 29  1  0  0  0  0
 28 29  1  0  0  0  0
  2 30  1  0  0  0  0
  2 31  1  0  0  0  0
  3 32  1  0  0  0  0
  4 33  1  0  0  0  0
  6 34  1  0  0  0  0
 10 35  1  0  0  0  0
 13 36  1  0  0  0  0
 14 37  1  0  0  0  0
 16 38  1  0  0  0  0
 17 39  1  0  0  0  0
 19 40  1  0  0  0  0
 22 41  1  0  0  0  0
 23 42  1  0  0  0  0
 23 43  1  0  0  0  0
 23 44  1  0  0  0  0
 26 45  1  0  0  0  0
 27 46  1  0  0  0  0
 28 47  1  0  0  0  0
 28 48  1  0  0  0  0
 29 49  1  0  0  0  0
 29 50  1  0  0  0  0
M  END
> <Name>
29

> <IC50[uM]>
0.18

$$$$
29
  -OEChem-05192314333D
 Structure written by MMmdl.
 50 54  0     0  0  0  0  0  0999 V2000
   -6.3727   12.3493  -11.9877 C   0  0  0  0  0  0  0  0  0  0  0  0
   -6.5190   11.8167  -10.7261 C   0  0  0  0  0  0  0  0  0  0  0  0
   -7.6919   10.5755  -13.0077 C   0  0  0  0  0  0  0  0  0  0  0  0
   -6.9476   11.7646  -13.1157 C   0  0  0  0  0  0  0  0  0  0  0  0
   -7.8131   10.0080  -11.7494 C   0  0  0  0  0  0  0  0  0  0  0  0
   -7.2399   10.6155  -10.5946 C   0  0  0  0  0  0  0  0  0  0  0  0
   -7.6088    9.7430   -9.5107 C   0  0  0  0  0  0  0  0  0  0  0  0
   -8.2764    8.7286   -9.9647 N   0  0  0  0  0  0  0  0  0  0  0  0
   -8.4188    8.8758  -11.2882 N   0  0  0  0  0  0  0  0  0  0  0  0
   -7.3326    9.8988   -8.0180 C   0  0  0  0  0  0  0  0  0  0  0  0
   -5.4060   13.8057  -12.2007 S   0  0  0  0  0  0  0  0  0  0  0  0
   -5.9763   10.4855   -7.7248 C   0  0  0  0  0  0  0  0  0  0  0  0
   -5.8692   11.7523   -7.1523 C   0  0  0  0  0  0  0  0  0  0  0  0
   -4.6115   12.3005   -6.8946 C   0  0  0  0  0  0  0  0  0  0  0  0
   -3.4415   11.5837   -7.2014 C   0  0  0  0  0  0  0  0  0  0  0  0
   -3.5677   10.3182   -7.7642 C   0  0  0  0  0  0  0  0  0  0  0  0
   -4.8209    9.7630   -8.0308 C   0  0  0  0  0  0  0  0  0  0  0  0
   -2.1027   12.1584   -6.9334 C   0  0  0  0  0  0  0  0  0  0  0  0
   -1.7604   13.4248   -6.4226 C   0  0  0  0  0  0  0  0  0  0  0  0
   -0.4260   13.4533   -6.3925 N   0  0  0  0  0  0  0  0  0  0  0  0
    0.1594   12.3444   -6.7934 N   0  0  0  0  0  0  0  0  0  0  0  0
   -0.8210   11.5507   -7.1379 C   0  0  0  0  0  0  0  0  0  0  0  0
    0.4194   14.5816   -5.9703 C   0  0  0  0  0  0  0  0  0  0  0  0
   -4.4605   13.4170  -13.2280 O   0  0  0  0  0  0  0  0  0  0  0  0
   -6.3362   14.9020  -12.4291 O   0  0  0  0  0  0  0  0  0  0  0  0
   -4.5495   14.1196  -10.6911 N   0  0  0  0  0  0  0  0  0  0  0  0
   -3.3000   13.4420  -10.3686 C   0  0  0  0  0  0  0  0  0  0  0  0
   -2.0717   13.9935  -11.0748 C   0  0  0  0  0  0  0  0  0  0  0  0
   -2.2627   14.2439   -9.6094 C   0  0  0  0  0  0  0  0  0  0  0  0
   -5.5094   11.6373  -10.3279 H   0  0  0  0  0  0  0  0  0  0  0  0
   -7.0275   12.5723  -10.1093 H   0  0  0  0  0  0  0  0  0  0  0  0
   -8.7077   10.7885  -13.3722 H   0  0  0  0  0  0  0  0  0  0  0  0
   -7.2168    9.8291  -13.6613 H   0  0  0  0  0  0  0  0  0  0  0  0
   -6.8202   12.2294  -14.0822 H   0  0  0  0  0  0  0  0  0  0  0  0
   -8.0377    9.6171   -7.2499 H   0  0  0  0  0  0  0  0  0  0  0  0
   -6.7609   12.3104   -6.9078 H   0  0  0  0  0  0  0  0  0  0  0  0
   -4.5365   13.2843   -6.4555 H   0  0  0  0  0  0  0  0  0  0  0  0
   -2.6780    9.7532   -7.9999 H   0  0  0  0  0  0  0  0  0  0  0  0
   -4.8963    8.7799   -8.4714 H   0  0  0  0  0  0  0  0  0  0  0  0
   -2.4366   14.2100   -6.1184 H   0  0  0  0  0  0  0  0  0  0  0  0
   -0.6813   10.5543   -7.5304 H   0  0  0  0  0  0  0  0  0  0  0  0
    1.4790   14.3012   -6.0627 H   0  0  0  0  0  0  0  0  0  0  0  0
    0.2138   15.4529   -6.6095 H   0  0  0  0  0  0  0  0  0  0  0  0
    0.1971   14.8344   -4.9231 H   0  0  0  0  0  0  0  0  0  0  0  0
   -4.3503   15.0995  -10.6784 H   0  0  0  0  0  0  0  0  0  0  0  0
   -3.3270   12.3575  -10.1868 H   0  0  0  0  0  0  0  0  0  0  0  0
   -1.2811   13.3093  -11.4167 H   0  0  0  0  0  0  0  0  0  0  0  0
   -2.1756   14.8213  -11.7917 H   0  0  0  0  0  0  0  0  0  0  0  0
   -2.5050   15.2560   -9.2530 H   0  0  0  0  0  0  0  0  0  0  0  0
   -1.6106   13.7440   -8.8781 H   0  0  0  0  0  0  0  0  0  0  0  0
  1  2  1  0  0  0  0
  1  4  2  0  0  0  0
  1 11  1  0  0  0  0
  2  6  1  0  0  0  0
  3  4  1  0  0  0  0
  3  5  1  0  0  0  0
  5  6  2  0  0  0  0
  5  9  1  0  0  0  0
  6  7  1  0  0  0  0
  7  8  1  0  0  0  0
  7 10  2  3  0  0  0
  8  9  2  0  0  0  0
 10 12  1  0  0  0  0
 11 24  2  0  0  0  0
 11 25  2  0  0  0  0
 11 26  1  0  0  0  0
 12 13  2  0  0  0  0
 12 17  1  0  0  0  0
 13 14  1  0  0  0  0
 14 15  2  0  0  0  0
 15 16  1  0  0  0  0
 15 18  1  0  0  0  0
 16 17  2  0  0  0  0
 18 19  2  0  0  0  0
 18 22  1  0  0  0  0
 19 20  1  0  0  0  0
 20 21  1  0  0  0  0
 20 23  1  0  0  0  0
 21 22  2  0  0  0  0
 26 27  1  0  0  0  0
 27 28  1  0  0  0  0
 27 29  1  0  0  0  0
 28 29  1  0  0  0  0
  2 30  1  0  0  0  0
  2 31  1  0  0  0  0
  3 32  1  0  0  0  0
  3 33  1  0  0  0  0
  4 34  1  0  0  0  0
 10 35  1  0  0  0  0
 13 36  1  0  0  0  0
 14 37  1  0  0  0  0
 16 38  1  0  0  0  0
 17 39  1  0  0  0  0
 19 40  1  0  0  0  0
 22 41  1  0  0  0  0
 23 42  1  0  0  0  0
 23 43  1  0  0  0  0
 23 44  1  0  0  0  0
 26 45  1  0  0  0  0
 27 46  1  0  0  0  0
 28 47  1  0  0  0  0
 28 48  1  0  0  0  0
 29 49  1  0  0  0  0
 29 50  1  0  0  0  0
M  END
> <Name>
29

> <IC50[uM]>
0.18

$$$$
29
  -OEChem-05192314333D
 Structure written by MMmdl.
 50 54  0     0  0  0  0  0  0999 V2000
   -6.3727   12.3493  -11.9877 C   0  0  0  0  0  0  0  0  0  0  0  0
   -6.5190   11.8167  -10.7261 C   0  0  0  0  0  0  0  0  0  0  0  0
   -7.6919   10.5755  -13.0077 C   0  0  0  0  0  0  0  0  0  0  0  0
   -6.9476   11.7646  -13.1157 C   0  0  0  0  0  0  0  0  0  0  0  0
   -7.8131   10.0080  -11.7494 C   0  0  0  0  0  0  0  0  0  0  0  0
   -7.2399   10.6155  -10.5946 C   0  0  0  0  0  0  0  0  0  0  0  0
   -7.6088    9.7430   -9.5107 C   0  0  0  0  0  0  0  0  0  0  0  0
   -8.2764    8.7286   -9.9647 N   0  0  0  0  0  0  0  0  0  0  0  0
   -8.4188    8.8758  -11.2882 N   0  0  0  0  0  0  0  0  0  0  0  0
   -7.3326    9.8988   -8.0180 C   0  0  0  0  0  0  0  0  0  0  0  0
   -5.4060   13.8057  -12.2007 S   0  0  0  0  0  0  0  0  0  0  0  0
   -5.9763   10.4855   -7.7248 C   0  0  0  0  0  0  0  0  0  0  0  0
   -5.8692   11.7523   -7.1523 C   0  0  0  0  0  0  0  0  0  0  0  0
   -4.6115   12.3005   -6.8946 C   0  0  0  0  0  0  0  0  0  0  0  0
   -3.4415   11.5837   -7.2014 C   0  0  0  0  0  0  0  0  0  0  0  0
   -3.5677   10.3182   -7.7642 C   0  0  0  0  0  0  0  0  0  0  0  0
   -4.8209    9.7630   -8.0308 C   0  0  0  0  0  0  0  0  0  0  0  0
   -2.1027   12.1584   -6.9334 C   0  0  0  0  0  0  0  0  0  0  0  0
   -1.7604   13.4248   -6.4226 C   0  0  0  0  0  0  0  0  0  0  0  0
   -0.4260   13.4533   -6.3925 N   0  0  0  0  0  0  0  0  0  0  0  0
    0.1594   12.3444   -6.7934 N   0  0  0  0  0  0  0  0  0  0  0  0
   -0.8210   11.5507   -7.1379 C   0  0  0  0  0  0  0  0  0  0  0  0
    0.4194   14.5816   -5.9703 C   0  0  0  0  0  0  0  0  0  0  0  0
   -4.4605   13.4170  -13.2280 O   0  0  0  0  0  0  0  0  0  0  0  0
   -6.3362   14.9020  -12.4291 O   0  0  0  0  0  0  0  0  0  0  0  0
   -4.5495   14.1196  -10.6911 N   0  0  0  0  0  0  0  0  0  0  0  0
   -3.3000   13.4420  -10.3686 C   0  0  0  0  0  0  0  0  0  0  0  0
   -2.0717   13.9935  -11.0748 C   0  0  0  0  0  0  0  0  0  0  0  0
   -2.2627   14.2439   -9.6094 C   0  0  0  0  0  0  0  0  0  0  0  0
   -5.5094   11.6373  -10.3279 H   0  0  0  0  0  0  0  0  0  0  0  0
   -7.0275   12.5723  -10.1093 H   0  0  0  0  0  0  0  0  0  0  0  0
   -8.1517   10.1219  -13.8733 H   0  0  0  0  0  0  0  0  0  0  0  0
   -6.8202   12.2294  -14.0822 H   0  0  0  0  0  0  0  0  0  0  0  0
   -8.0999   10.5589   -7.5873 H   0  0  0  0  0  0  0  0  0  0  0  0
   -7.3945    8.9074   -7.5454 H   0  0  0  0  0  0  0  0  0  0  0  0
   -6.7609   12.3104   -6.9078 H   0  0  0  0  0  0  0  0  0  0  0  0
   -4.5365   13.2843   -6.4555 H   0  0  0  0  0  0  0  0  0  0  0  0
   -2.6780    9.7532   -7.9999 H   0  0  0  0  0  0  0  0  0  0  0  0
   -4.8963    8.7799   -8.4714 H   0  0  0  0  0  0  0  0  0  0  0  0
   -2.4366   14.2100   -6.1184 H   0  0  0  0  0  0  0  0  0  0  0  0
   -0.6813   10.5543   -7.5304 H   0  0  0  0  0  0  0  0  0  0  0  0
    1.4790   14.3012   -6.0627 H   0  0  0  0  0  0  0  0  0  0  0  0
    0.2138   15.4529   -6.6095 H   0  0  0  0  0  0  0  0  0  0  0  0
    0.1971   14.8344   -4.9231 H   0  0  0  0  0  0  0  0  0  0  0  0
   -4.3503   15.0995  -10.6784 H   0  0  0  0  0  0  0  0  0  0  0  0
   -3.3270   12.3575  -10.1868 H   0  0  0  0  0  0  0  0  0  0  0  0
   -1.2811   13.3093  -11.4167 H   0  0  0  0  0  0  0  0  0  0  0  0
   -2.1756   14.8213  -11.7917 H   0  0  0  0  0  0  0  0  0  0  0  0
   -2.5050   15.2560   -9.2530 H   0  0  0  0  0  0  0  0  0  0  0  0
   -1.6106   13.7440   -8.8781 H   0  0  0  0  0  0  0  0  0  0  0  0
  1  2  1  0  0  0  0
  1  4  2  0  0  0  0
  1 11  1  0  0  0  0
  2  6  1  0  0  0  0
  3  4  1  0  0  0  0
  3  5  2  0  0  0  0
  5  6  1  0  0  0  0
  5  9  1  0  0  0  0
  6  7  2  0  0  0  0
  7  8  1  0  0  0  0
  7 10  1  0  0  0  0
  8  9  2  0  0  0  0
 10 12  1  0  0  0  0
 11 24  2  0  0  0  0
 11 25  2  0  0  0  0
 11 26  1  0  0  0  0
 12 13  2  0  0  0  0
 12 17  1  0  0  0  0
 13 14  1  0  0  0  0
 14 15  2  0  0  0  0
 15 16  1  0  0  0  0
 15 18  1  0  0  0  0
 16 17  2  0  0  0  0
 18 19  2  0  0  0  0
 18 22  1  0  0  0  0
 19 20  1  0  0  0  0
 20 21  1  0  0  0  0
 20 23  1  0  0  0  0
 21 22  2  0  0  0  0
 26 27  1  0  0  0  0
 27 28  1  0  0  0  0
 27 29  1  0  0  0  0
 28 29  1  0  0  0  0
  2 30  1  0  0  0  0
  2 31  1  0  0  0  0
  3 32  1  0  0  0  0
  4 33  1  0  0  0  0
 10 34  1  0  0  0  0
 10 35  1  0  0  0  0
 13 36  1  0  0  0  0
 14 37  1  0  0  0  0
 16 38  1  0  0  0  0
 17 39  1  0  0  0  0
 19 40  1  0  0  0  0
 22 41  1  0  0  0  0
 23 42  1  0  0  0  0
 23 43  1  0  0  0  0
 23 44  1  0  0  0  0
 26 45  1  0  0  0  0
 27 46  1  0  0  0  0
 28 47  1  0  0  0  0
 28 48  1  0  0  0  0
 29 49  1  0  0  0  0
 29 50  1  0  0  0  0
M  END
> <Name>
29

> <IC50[uM]>
0.18

$$$$
29
  -OEChem-05192314333D
 Structure written by MMmdl.
 50 54  0     1  0  0  0  0  0999 V2000
   -6.3727   12.3493  -11.9877 C   0  0  0  0  0  0  0  0  0  0  0  0
   -6.5190   11.8167  -10.7261 C   0  0  0  0  0  0  0  0  0  0  0  0
   -7.6919   10.5755  -13.0077 C   0  0  0  0  0  0  0  0  0  0  0  0
   -6.9476   11.7646  -13.1157 C   0  0  0  0  0  0  0  0  0  0  0  0
   -7.8131   10.0080  -11.7494 C   0  0  0  0  0  0  0  0  0  0  0  0
   -7.2399   10.6155  -10.5946 C   0  0  3  0  0  0  0  0  0  0  0  0
   -7.6088    9.7430   -9.5107 C   0  0  0  0  0  0  0  0  0  0  0  0
   -8.2764    8.7286   -9.9647 N   0  0  0  0  0  0  0  0  0  0  0  0
   -8.4188    8.8758  -11.2882 N   0  0  0  0  0  0  0  0  0  0  0  0
   -7.3326    9.8988   -8.0180 C   0  0  0  0  0  0  0  0  0  0  0  0
   -5.4060   13.8057  -12.2007 S   0  0  0  0  0  0  0  0  0  0  0  0
   -5.9763   10.4855   -7.7248 C   0  0  0  0  0  0  0  0  0  0  0  0
   -5.8692   11.7523   -7.1523 C   0  0  0  0  0  0  0  0  0  0  0  0
   -4.6115   12.3005   -6.8946 C   0  0  0  0  0  0  0  0  0  0  0  0
   -3.4415   11.5837   -7.2014 C   0  0  0  0  0  0  0  0  0  0  0  0
   -3.5677   10.3182   -7.7642 C   0  0  0  0  0  0  0  0  0  0  0  0
   -4.8209    9.7630   -8.0308 C   0  0  0  0  0  0  0  0  0  0  0  0
   -2.1027   12.1584   -6.9334 C   0  0  0  0  0  0  0  0  0  0  0  0
   -1.7604   13.4248   -6.4226 C   0  0  0  0  0  0  0  0  0  0  0  0
   -0.4260   13.4533   -6.3925 N   0  0  0  0  0  0  0  0  0  0  0  0
    0.1594   12.3444   -6.7934 N   0  0  0  0  0  0  0  0  0  0  0  0
   -0.8210   11.5507   -7.1379 C   0  0  0  0  0  0  0  0  0  0  0  0
    0.4194   14.5816   -5.9703 C   0  0  0  0  0  0  0  0  0  0  0  0
   -4.4605   13.4170  -13.2280 O   0  0  0  0  0  0  0  0  0  0  0  0
   -6.3362   14.9020  -12.4291 O   0  0  0  0  0  0  0  0  0  0  0  0
   -4.5495   14.1196  -10.6911 N   0  0  0  0  0  0  0  0  0  0  0  0
   -3.3000   13.4420  -10.3686 C   0  0  0  0  0  0  0  0  0  0  0  0
   -2.0717   13.9935  -11.0748 C   0  0  0  0  0  0  0  0  0  0  0  0
   -2.2627   14.2439   -9.6094 C   0  0  0  0  0  0  0  0  0  0  0  0
   -6.0929   12.3066   -9.8631 H   0  0  0  0  0  0  0  0  0  0  0  0
   -8.1517   10.1219  -13.8733 H   0  0  0  0  0  0  0  0  0  0  0  0
   -6.8202   12.2294  -14.0822 H   0  0  0  0  0  0  0  0  0  0  0  0
   -6.3149   10.0400  -10.7471 H   0  0  0  0  0  0  0  0  0  0  0  0
   -8.6255    7.9663   -9.4196 H   0  0  0  0  0  0  0  0  0  0  0  0
   -8.0377    9.6171   -7.2499 H   0  0  0  0  0  0  0  0  0  0  0  0
   -6.7609   12.3104   -6.9078 H   0  0  0  0  0  0  0  0  0  0  0  0
   -4.5365   13.2843   -6.4555 H   0  0  0  0  0  0  0  0  0  0  0  0
   -2.6780    9.7532   -7.9999 H   0  0  0  0  0  0  0  0  0  0  0  0
   -4.8963    8.7799   -8.4714 H   0  0  0  0  0  0  0  0  0  0  0  0
   -2.4366   14.2100   -6.1184 H   0  0  0  0  0  0  0  0  0  0  0  0
   -0.6813   10.5543   -7.5304 H   0  0  0  0  0  0  0  0  0  0  0  0
    1.4790   14.3012   -6.0627 H   0  0  0  0  0  0  0  0  0  0  0  0
    0.2138   15.4529   -6.6095 H   0  0  0  0  0  0  0  0  0  0  0  0
    0.1971   14.8344   -4.9231 H   0  0  0  0  0  0  0  0  0  0  0  0
   -4.3503   15.0995  -10.6784 H   0  0  0  0  0  0  0  0  0  0  0  0
   -3.3270   12.3575  -10.1868 H   0  0  0  0  0  0  0  0  0  0  0  0
   -1.2811   13.3093  -11.4167 H   0  0  0  0  0  0  0  0  0  0  0  0
   -2.1756   14.8213  -11.7917 H   0  0  0  0  0  0  0  0  0  0  0  0
   -2.5050   15.2560   -9.2530 H   0  0  0  0  0  0  0  0  0  0  0  0
   -1.6106   13.7440   -8.8781 H   0  0  0  0  0  0  0  0  0  0  0  0
  1  2  2  0  0  0  0
  1  4  1  0  0  0  0
  1 11  1  0  0  0  0
  2  6  1  0  0  0  0
  3  4  2  0  0  0  0
  3  5  1  0  0  0  0
  5  6  1  0  0  0  0
  5  9  2  0  0  0  0
  6  7  1  0  0  0  0
  7  8  1  0  0  0  0
  7 10  2  3  0  0  0
  8  9  1  0  0  0  0
 10 12  1  0  0  0  0
 11 24  2  0  0  0  0
 11 25  2  0  0  0  0
 11 26  1  0  0  0  0
 12 13  2  0  0  0  0
 12 17  1  0  0  0  0
 13 14  1  0  0  0  0
 14 15  2  0  0  0  0
 15 16  1  0  0  0  0
 15 18  1  0  0  0  0
 16 17  2  0  0  0  0
 18 19  2  0  0  0  0
 18 22  1  0  0  0  0
 19 20  1  0  0  0  0
 20 21  1  0  0  0  0
 20 23  1  0  0  0  0
 21 22  2  0  0  0  0
 26 27  1  0  0  0  0
 27 28  1  0  0  0  0
 27 29  1  0  0  0  0
 28 29  1  0  0  0  0
  2 30  1  0  0  0  0
  3 31  1  0  0  0  0
  4 32  1  0  0  0  0
  6 33  1  0  0  0  0
  8 34  1  0  0  0  0
 10 35  1  0  0  0  0
 13 36  1  0  0  0  0
 14 37  1  0  0  0  0
 16 38  1  0  0  0  0
 17 39  1  0  0  0  0
 19 40  1  0  0  0  0
 22 41  1  0  0  0  0
 23 42  1  0  0  0  0
 23 43  1  0  0  0  0
 23 44  1  0  0  0  0
 26 45  1  0  0  0  0
 27 46  1  0  0  0  0
 28 47  1  0  0  0  0
 28 48  1  0  0  0  0
 29 49  1  0  0  0  0
 29 50  1  0  0  0  0
M  END
> <Name>
29

> <IC50[uM]>
0.18

$$$$
29
  -OEChem-05192314333D
 Structure written by MMmdl.
 50 54  0     1  0  0  0  0  0999 V2000
   -6.3727   12.3493  -11.9877 C   0  0  0  0  0  0  0  0  0  0  0  0
   -6.5190   11.8167  -10.7261 C   0  0  0  0  0  0  0  0  0  0  0  0
   -7.6919   10.5755  -13.0077 C   0  0  0  0  0  0  0  0  0  0  0  0
   -6.9476   11.7646  -13.1157 C   0  0  0  0  0  0  0  0  0  0  0  0
   -7.8131   10.0080  -11.7494 C   0  0  0  0  0  0  0  0  0  0  0  0
   -7.2399   10.6155  -10.5946 C   0  0  0  0  0  0  0  0  0  0  0  0
   -7.6088    9.7430   -9.5107 C   0  0  0  0  0  0  0  0  0  0  0  0
   -8.2764    8.7286   -9.9647 N   0  0  0  0  0  0  0  0  0  0  0  0
   -8.4188    8.8758  -11.2882 N   0  0  0  0  0  0  0  0  0  0  0  0
   -7.3326    9.8988   -8.0180 C   0  0  0  0  0  0  0  0  0  0  0  0
   -5.4060   13.8057  -12.2007 S   0  0  0  0  0  0  0  0  0  0  0  0
   -5.9763   10.4855   -7.7248 C   0  0  0  0  0  0  0  0  0  0  0  0
   -5.8692   11.7523   -7.1523 C   0  0  0  0  0  0  0  0  0  0  0  0
   -4.6115   12.3005   -6.8946 C   0  0  0  0  0  0  0  0  0  0  0  0
   -3.4415   11.5837   -7.2014 C   0  0  0  0  0  0  0  0  0  0  0  0
   -3.5677   10.3182   -7.7642 C   0  0  0  0  0  0  0  0  0  0  0  0
   -4.8209    9.7630   -8.0308 C   0  0  0  0  0  0  0  0  0  0  0  0
   -2.1027   12.1584   -6.9334 C   0  0  0  0  0  0  0  0  0  0  0  0
   -1.7604   13.4248   -6.4226 C   0  0  0  0  0  0  0  0  0  0  0  0
   -0.4260   13.4533   -6.3925 N   0  0  3  0  0  0  0  0  0  0  0  0
    0.1594   12.3444   -6.7934 N   0  0  0  0  0  0  0  0  0  0  0  0
   -0.8210   11.5507   -7.1379 C   0  0  0  0  0  0  0  0  0  0  0  0
    0.4194   14.5816   -5.9703 C   0  0  0  0  0  0  0  0  0  0  0  0
   -4.4605   13.4170  -13.2280 O   0  0  0  0  0  0  0  0  0  0  0  0
   -6.3362   14.9020  -12.4291 O   0  0  0  0  0  0  0  0  0  0  0  0
   -4.5495   14.1196  -10.6911 N   0  0  0  0  0  0  0  0  0  0  0  0
   -3.3000   13.4420  -10.3686 C   0  0  0  0  0  0  0  0  0  0  0  0
   -2.0717   13.9935  -11.0748 C   0  0  0  0  0  0  0  0  0  0  0  0
   -2.2627   14.2439   -9.6094 C   0  0  0  0  0  0  0  0  0  0  0  0
   -6.0929   12.3066   -9.8631 H   0  0  0  0  0  0  0  0  0  0  0  0
   -8.1517   10.1219  -13.8733 H   0  0  0  0  0  0  0  0  0  0  0  0
   -6.8202   12.2294  -14.0822 H   0  0  0  0  0  0  0  0  0  0  0  0
   -8.0377    9.6171   -7.2499 H   0  0  0  0  0  0  0  0  0  0  0  0
   -5.9957   10.0327   -6.7225 H   0  0  0  0  0  0  0  0  0  0  0  0
   -6.7609   12.3104   -6.9078 H   0  0  0  0  0  0  0  0  0  0  0  0
   -4.5365   13.2843   -6.4555 H   0  0  0  0  0  0  0  0  0  0  0  0
   -2.6780    9.7532   -7.9999 H   0  0  0  0  0  0  0  0  0  0  0  0
   -4.8963    8.7799   -8.4714 H   0  0  0  0  0  0  0  0  0  0  0  0
   -2.1464   14.2197   -7.0777 H   0  0  0  0  0  0  0  0  0  0  0  0
   -2.1698   13.5533   -5.4097 H   0  0  0  0  0  0  0  0  0  0  0  0
   -0.6813   10.5543   -7.5304 H   0  0  0  0  0  0  0  0  0  0  0  0
    1.4790   14.3012   -6.0627 H   0  0  0  0  0  0  0  0  0  0  0  0
    0.2138   15.4529   -6.6095 H   0  0  0  0  0  0  0  0  0  0  0  0
    0.1971   14.8344   -4.9231 H   0  0  0  0  0  0  0  0  0  0  0  0
   -4.3503   15.0995  -10.6784 H   0  0  0  0  0  0  0  0  0  0  0  0
   -3.3270   12.3575  -10.1868 H   0  0  0  0  0  0  0  0  0  0  0  0
   -1.2811   13.3093  -11.4167 H   0  0  0  0  0  0  0  0  0  0  0  0
   -2.1756   14.8213  -11.7917 H   0  0  0  0  0  0  0  0  0  0  0  0
   -2.5050   15.2560   -9.2530 H   0  0  0  0  0  0  0  0  0  0  0  0
   -1.6106   13.7440   -8.8781 H   0  0  0  0  0  0  0  0  0  0  0  0
  1  2  2  0  0  0  0
  1  4  1  0  0  0  0
  1 11  1  0  0  0  0
  2  6  1  0  0  0  0
  3  4  2  0  0  0  0
  3  5  1  0  0  0  0
  5  6  2  0  0  0  0
  5  9  1  0  0  0  0
  6  7  1  0  0  0  0
  7  8  1  0  0  0  0
  7 10  2  3  0  0  0
  8  9  2  0  0  0  0
 10 12  1  0  0  0  0
 11 24  2  0  0  0  0
 11 25  2  0  0  0  0
 11 26  1  0  0  0  0
 12 13  1  0  0  0  0
 12 17  1  0  0  0  0
 13 14  2  0  0  0  0
 14 15  1  0  0  0  0
 15 16  1  0  0  0  0
 15 18  2  0  0  0  0
 16 17  2  0  0  0  0
 18 19  1  0  0  0  0
 18 22  1  0  0  0  0
 19 20  1  0  0  0  0
 20 21  1  0  0  0  0
 20 23  1  0  0  0  0
 21 22  2  0  0  0  0
 26 27  1  0  0  0  0
 27 28  1  0  0  0  0
 27 29  1  0  0  0  0
 28 29  1  0  0  0  0
  2 30  1  0  0  0  0
  3 31  1  0  0  0  0
  4 32  1  0  0  0  0
 10 33  1  0  0  0  0
 12 34  1  0  0  0  0
 13 35  1  0  0  0  0
 14 36  1  0  0  0  0
 16 37  1  0  0  0  0
 17 38  1  0  0  0  0
 19 39  1  0  0  0  0
 19 40  1  0  0  0  0
 22 41  1  0  0  0  0
 23 42  1  0  0  0  0
 23 43  1  0  0  0  0
 23 44  1  0  0  0  0
 26 45  1  0  0  0  0
 27 46  1  0  0  0  0
 28 47  1  0  0  0  0
 28 48  1  0  0  0  0
 29 49  1  0  0  0  0
 29 50  1  0  0  0  0
M  END
> <Name>
29

> <IC50[uM]>
0.18

$$$$
29
  -OEChem-05192314333D
 Structure written by MMmdl.
 50 54  0     1  0  0  0  0  0999 V2000
   -6.3727   12.3493  -11.9877 C   0  0  0  0  0  0  0  0  0  0  0  0
   -6.5190   11.8167  -10.7261 C   0  0  0  0  0  0  0  0  0  0  0  0
   -7.6919   10.5755  -13.0077 C   0  0  0  0  0  0  0  0  0  0  0  0
   -6.9476   11.7646  -13.1157 C   0  0  0  0  0  0  0  0  0  0  0  0
   -7.8131   10.0080  -11.7494 C   0  0  0  0  0  0  0  0  0  0  0  0
   -7.2399   10.6155  -10.5946 C   0  0  0  0  0  0  0  0  0  0  0  0
   -7.6088    9.7430   -9.5107 C   0  0  0  0  0  0  0  0  0  0  0  0
   -8.2764    8.7286   -9.9647 N   0  0  0  0  0  0  0  0  0  0  0  0
   -8.4188    8.8758  -11.2882 N   0  0  0  0  0  0  0  0  0  0  0  0
   -7.3326    9.8988   -8.0180 C   0  0  0  0  0  0  0  0  0  0  0  0
   -5.4060   13.8057  -12.2007 S   0  0  0  0  0  0  0  0  0  0  0  0
   -5.9763   10.4855   -7.7248 C   0  0  0  0  0  0  0  0  0  0  0  0
   -5.8692   11.7523   -7.1523 C   0  0  0  0  0  0  0  0  0  0  0  0
   -4.6115   12.3005   -6.8946 C   0  0  0  0  0  0  0  0  0  0  0  0
   -3.4415   11.5837   -7.2014 C   0  0  0  0  0  0  0  0  0  0  0  0
   -3.5677   10.3182   -7.7642 C   0  0  0  0  0  0  0  0  0  0  0  0
   -4.8209    9.7630   -8.0308 C   0  0  0  0  0  0  0  0  0  0  0  0
   -2.1027   12.1584   -6.9334 C   0  0  0  0  0  0  0  0  0  0  0  0
   -1.7604   13.4248   -6.4226 C   0  0  0  0  0  0  0  0  0  0  0  0
   -0.4260   13.4533   -6.3925 N   0  0  3  0  0  0  0  0  0  0  0  0
    0.1594   12.3444   -6.7934 N   0  0  0  0  0  0  0  0  0  0  0  0
   -0.8210   11.5507   -7.1379 C   0  0  0  0  0  0  0  0  0  0  0  0
    0.4194   14.5816   -5.9703 C   0  0  0  0  0  0  0  0  0  0  0  0
   -4.4605   13.4170  -13.2280 O   0  0  0  0  0  0  0  0  0  0  0  0
   -6.3362   14.9020  -12.4291 O   0  0  0  0  0  0  0  0  0  0  0  0
   -4.5495   14.1196  -10.6911 N   0  0  0  0  0  0  0  0  0  0  0  0
   -3.3000   13.4420  -10.3686 C   0  0  0  0  0  0  0  0  0  0  0  0
   -2.0717   13.9935  -11.0748 C   0  0  0  0  0  0  0  0  0  0  0  0
   -2.2627   14.2439   -9.6094 C   0  0  0  0  0  0  0  0  0  0  0  0
   -6.0929   12.3066   -9.8631 H   0  0  0  0  0  0  0  0  0  0  0  0
   -8.1517   10.1219  -13.8733 H   0  0  0  0  0  0  0  0  0  0  0  0
   -6.8202   12.2294  -14.0822 H   0  0  0  0  0  0  0  0  0  0  0  0
   -8.0377    9.6171   -7.2499 H   0  0  0  0  0  0  0  0  0  0  0  0
   -6.7609   12.3104   -6.9078 H   0  0  0  0  0  0  0  0  0  0  0  0
   -4.5586   13.2445   -7.4568 H   0  0  0  0  0  0  0  0  0  0  0  0
   -4.5762   12.5136   -5.8160 H   0  0  0  0  0  0  0  0  0  0  0  0
   -2.6780    9.7532   -7.9999 H   0  0  0  0  0  0  0  0  0  0  0  0
   -4.8963    8.7799   -8.4714 H   0  0  0  0  0  0  0  0  0  0  0  0
   -2.1464   14.2197   -7.0777 H   0  0  0  0  0  0  0  0  0  0  0  0
   -2.1698   13.5533   -5.4097 H   0  0  0  0  0  0  0  0  0  0  0  0
   -0.6813   10.5543   -7.5304 H   0  0  0  0  0  0  0  0  0  0  0  0
    1.4790   14.3012   -6.0627 H   0  0  0  0  0  0  0  0  0  0  0  0
    0.2138   15.4529   -6.6095 H   0  0  0  0  0  0  0  0  0  0  0  0
    0.1971   14.8344   -4.9231 H   0  0  0  0  0  0  0  0  0  0  0  0
   -4.3503   15.0995  -10.6784 H   0  0  0  0  0  0  0  0  0  0  0  0
   -3.3270   12.3575  -10.1868 H   0  0  0  0  0  0  0  0  0  0  0  0
   -1.2811   13.3093  -11.4167 H   0  0  0  0  0  0  0  0  0  0  0  0
   -2.1756   14.8213  -11.7917 H   0  0  0  0  0  0  0  0  0  0  0  0
   -2.5050   15.2560   -9.2530 H   0  0  0  0  0  0  0  0  0  0  0  0
   -1.6106   13.7440   -8.8781 H   0  0  0  0  0  0  0  0  0  0  0  0
  1  2  2  0  0  0  0
  1  4  1  0  0  0  0
  1 11  1  0  0  0  0
  2  6  1  0  0  0  0
  3  4  2  0  0  0  0
  3  5  1  0  0  0  0
  5  6  2  0  0  0  0
  5  9  1  0  0  0  0
  6  7  1  0  0  0  0
  7  8  1  0  0  0  0
  7 10  2  3  0  0  0
  8  9  2  0  0  0  0
 10 12  1  0  0  0  0
 11 24  2  0  0  0  0
 11 25  2  0  0  0  0
 11 26  1  0  0  0  0
 12 13  2  0  0  0  0
 12 17  1  0  0  0  0
 13 14  1  0  0  0  0
 14 15  1  0  0  0  0
 15 16  1  0  0  0  0
 15 18  2  0  0  0  0
 16 17  2  0  0  0  0
 18 19  1  0  0  0  0
 18 22  1  0  0  0  0
 19 20  1  0  0  0  0
 20 21  1  0  0  0  0
 20 23  1  0  0  0  0
 21 22  2  0  0  0  0
 26 27  1  0  0  0  0
 27 28  1  0  0  0  0
 27 29  1  0  0  0  0
 28 29  1  0  0  0  0
  2 30  1  0  0  0  0
  3 31  1  0  0  0  0
  4 32  1  0  0  0  0
 10 33  1  0  0  0  0
 13 34  1  0  0  0  0
 14 35  1  0  0  0  0
 14 36  1  0  0  0  0
 16 37  1  0  0  0  0
 17 38  1  0  0  0  0
 19 39  1  0  0  0  0
 19 40  1  0  0  0  0
 22 41  1  0  0  0  0
 23 42  1  0  0  0  0
 23 43  1  0  0  0  0
 23 44  1  0  0  0  0
 26 45  1  0  0  0  0
 27 46  1  0  0  0  0
 28 47  1  0  0  0  0
 28 48  1  0  0  0  0
 29 49  1  0  0  0  0
 29 50  1  0  0  0  0
M  END
> <Name>
29

> <IC50[uM]>
0.18

$$$$
29
  -OEChem-05192314333D
 Structure written by MMmdl.
 50 54  0     1  0  0  0  0  0999 V2000
   -6.3727   12.3493  -11.9877 C   0  0  3  0  0  0  0  0  0  0  0  0
   -6.5190   11.8167  -10.7261 C   0  0  0  0  0  0  0  0  0  0  0  0
   -7.6919   10.5755  -13.0077 C   0  0  0  0  0  0  0  0  0  0  0  0
   -6.9476   11.7646  -13.1157 C   0  0  0  0  0  0  0  0  0  0  0  0
   -7.8131   10.0080  -11.7494 C   0  0  0  0  0  0  0  0  0  0  0  0
   -7.2399   10.6155  -10.5946 C   0  0  0  0  0  0  0  0  0  0  0  0
   -7.6088    9.7430   -9.5107 C   0  0  0  0  0  0  0  0  0  0  0  0
   -8.2764    8.7286   -9.9647 N   0  0  0  0  0  0  0  0  0  0  0  0
   -8.4188    8.8758  -11.2882 N   0  0  0  0  0  0  0  0  0  0  0  0
   -7.3326    9.8988   -8.0180 C   0  0  0  0  0  0  0  0  0  0  0  0
   -5.4060   13.8057  -12.2007 S   0  0  0  0  0  0  0  0  0  0  0  0
   -5.9763   10.4855   -7.7248 C   0  0  0  0  0  0  0  0  0  0  0  0
   -5.8692   11.7523   -7.1523 C   0  0  0  0  0  0  0  0  0  0  0  0
   -4.6115   12.3005   -6.8946 C   0  0  0  0  0  0  0  0  0  0  0  0
   -3.4415   11.5837   -7.2014 C   0  0  0  0  0  0  0  0  0  0  0  0
   -3.5677   10.3182   -7.7642 C   0  0  0  0  0  0  0  0  0  0  0  0
   -4.8209    9.7630   -8.0308 C   0  0  0  0  0  0  0  0  0  0  0  0
   -2.1027   12.1584   -6.9334 C   0  0  0  0  0  0  0  0  0  0  0  0
   -1.7604   13.4248   -6.4226 C   0  0  0  0  0  0  0  0  0  0  0  0
   -0.4260   13.4533   -6.3925 N   0  0  3  0  0  0  0  0  0  0  0  0
    0.1594   12.3444   -6.7934 N   0  0  0  0  0  0  0  0  0  0  0  0
   -0.8210   11.5507   -7.1379 C   0  0  0  0  0  0  0  0  0  0  0  0
    0.4194   14.5816   -5.9703 C   0  0  0  0  0  0  0  0  0  0  0  0
   -4.4605   13.4170  -13.2280 O   0  0  0  0  0  0  0  0  0  0  0  0
   -6.3362   14.9020  -12.4291 O   0  0  0  0  0  0  0  0  0  0  0  0
   -4.5495   14.1196  -10.6911 N   0  0  0  0  0  0  0  0  0  0  0  0
   -3.3000   13.4420  -10.3686 C   0  0  0  0  0  0  0  0  0  0  0  0
   -2.0717   13.9935  -11.0748 C   0  0  0  0  0  0  0  0  0  0  0  0
   -2.2627   14.2439   -9.6094 C   0  0  0  0  0  0  0  0  0  0  0  0
   -7.2734   12.9632  -11.8395 H   0  0  0  0  0  0  0  0  0  0  0  0
   -6.0929   12.3066   -9.8631 H   0  0  0  0  0  0  0  0  0  0  0  0
   -8.1517   10.1219  -13.8733 H   0  0  0  0  0  0  0  0  0  0  0  0
   -6.8202   12.2294  -14.0822 H   0  0  0  0  0  0  0  0  0  0  0  0
   -8.0377    9.6171   -7.2499 H   0  0  0  0  0  0  0  0  0  0  0  0
   -6.7609   12.3104   -6.9078 H   0  0  0  0  0  0  0  0  0  0  0  0
   -4.5365   13.2843   -6.4555 H   0  0  0  0  0  0  0  0  0  0  0  0
   -2.6780    9.7532   -7.9999 H   0  0  0  0  0  0  0  0  0  0  0  0
   -4.8963    8.7799   -8.4714 H   0  0  0  0  0  0  0  0  0  0  0  0
   -2.1464   14.2197   -7.0777 H   0  0  0  0  0  0  0  0  0  0  0  0
   -2.1698   13.5533   -5.4097 H   0  0  0  0  0  0  0  0  0  0  0  0
   -0.6813   10.5543   -7.5304 H   0  0  0  0  0  0  0  0  0  0  0  0
    1.4790   14.3012   -6.0627 H   0  0  0  0  0  0  0  0  0  0  0  0
    0.2138   15.4529   -6.6095 H   0  0  0  0  0  0  0  0  0  0  0  0
    0.1971   14.8344   -4.9231 H   0  0  0  0  0  0  0  0  0  0  0  0
   -4.3503   15.0995  -10.6784 H   0  0  0  0  0  0  0  0  0  0  0  0
   -3.3270   12.3575  -10.1868 H   0  0  0  0  0  0  0  0  0  0  0  0
   -1.2811   13.3093  -11.4167 H   0  0  0  0  0  0  0  0  0  0  0  0
   -2.1756   14.8213  -11.7917 H   0  0  0  0  0  0  0  0  0  0  0  0
   -2.5050   15.2560   -9.2530 H   0  0  0  0  0  0  0  0  0  0  0  0
   -1.6106   13.7440   -8.8781 H   0  0  0  0  0  0  0  0  0  0  0  0
  1  2  1  0  0  0  0
  1  4  1  0  0  0  0
  1 11  1  0  0  0  0
  2  6  2  0  0  0  0
  3  4  2  0  0  0  0
  3  5  1  0  0  0  0
  5  6  1  0  0  0  0
  5  9  2  0  0  0  0
  6  7  1  0  0  0  0
  7  8  2  0  0  0  0
  7 10  1  0  0  0  0
  8  9  1  0  0  0  0
 10 12  2  0  0  0  0
 11 24  2  0  0  0  0
 11 25  2  0  0  0  0
 11 26  1  0  0  0  0
 12 13  1  0  0  0  0
 12 17  1  0  0  0  0
 13 14  2  0  0  0  0
 14 15  1  0  0  0  0
 15 16  1  0  0  0  0
 15 18  2  0  0  0  0
 16 17  2  0  0  0  0
 18 19  1  0  0  0  0
 18 22  1  0  0  0  0
 19 20  1  0  0  0  0
 20 21  1  0  0  0  0
 20 23  1  0  0  0  0
 21 22  2  0  0  0  0
 26 27  1  0  0  0  0
 27 28  1  0  0  0  0
 27 29  1  0  0  0  0
 28 29  1  0  0  0  0
  1 30  1  0  0  0  0
  2 31  1  0  0  0  0
  3 32  1  0  0  0  0
  4 33  1  0  0  0  0
 10 34  1  0  0  0  0
 13 35  1  0  0  0  0
 14 36  1  0  0  0  0
 16 37  1  0  0  0  0
 17 38  1  0  0  0  0
 19 39  1  0  0  0  0
 19 40  1  0  0  0  0
 22 41  1  0  0  0  0
 23 42  1  0  0  0  0
 23 43  1  0  0  0  0
 23 44  1  0  0  0  0
 26 45  1  0  0  0  0
 27 46  1  0  0  0  0
 28 47  1  0  0  0  0
 28 48  1  0  0  0  0
 29 49  1  0  0  0  0
 29 50  1  0  0  0  0
M  END
> <Name>
29

> <IC50[uM]>
0.18

$$$$
29
  -OEChem-05192314333D
 Structure written by MMmdl.
 50 54  0     1  0  0  0  0  0999 V2000
   -6.3727   12.3493  -11.9877 C   0  0  0  0  0  0  0  0  0  0  0  0
   -6.5190   11.8167  -10.7261 C   0  0  0  0  0  0  0  0  0  0  0  0
   -7.6919   10.5755  -13.0077 C   0  0  0  0  0  0  0  0  0  0  0  0
   -6.9476   11.7646  -13.1157 C   0  0  0  0  0  0  0  0  0  0  0  0
   -7.8131   10.0080  -11.7494 C   0  0  0  0  0  0  0  0  0  0  0  0
   -7.2399   10.6155  -10.5946 C   0  0  3  0  0  0  0  0  0  0  0  0
   -7.6088    9.7430   -9.5107 C   0  0  0  0  0  0  0  0  0  0  0  0
   -8.2764    8.7286   -9.9647 N   0  0  0  0  0  0  0  0  0  0  0  0
   -8.4188    8.8758  -11.2882 N   0  0  0  0  0  0  0  0  0  0  0  0
   -7.3326    9.8988   -8.0180 C   0  0  0  0  0  0  0  0  0  0  0  0
   -5.4060   13.8057  -12.2007 S   0  0  0  0  0  0  0  0  0  0  0  0
   -5.9763   10.4855   -7.7248 C   0  0  0  0  0  0  0  0  0  0  0  0
   -5.8692   11.7523   -7.1523 C   0  0  0  0  0  0  0  0  0  0  0  0
   -4.6115   12.3005   -6.8946 C   0  0  0  0  0  0  0  0  0  0  0  0
   -3.4415   11.5837   -7.2014 C   0  0  0  0  0  0  0  0  0  0  0  0
   -3.5677   10.3182   -7.7642 C   0  0  0  0  0  0  0  0  0  0  0  0
   -4.8209    9.7630   -8.0308 C   0  0  0  0  0  0  0  0  0  0  0  0
   -2.1027   12.1584   -6.9334 C   0  0  0  0  0  0  0  0  0  0  0  0
   -1.7604   13.4248   -6.4226 C   0  0  0  0  0  0  0  0  0  0  0  0
   -0.4260   13.4533   -6.3925 N   0  0  3  0  0  0  0  0  0  0  0  0
    0.1594   12.3444   -6.7934 N   0  0  0  0  0  0  0  0  0  0  0  0
   -0.8210   11.5507   -7.1379 C   0  0  0  0  0  0  0  0  0  0  0  0
    0.4194   14.5816   -5.9703 C   0  0  0  0  0  0  0  0  0  0  0  0
   -4.4605   13.4170  -13.2280 O   0  0  0  0  0  0  0  0  0  0  0  0
   -6.3362   14.9020  -12.4291 O   0  0  0  0  0  0  0  0  0  0  0  0
   -4.5495   14.1196  -10.6911 N   0  0  0  0  0  0  0  0  0  0  0  0
   -3.3000   13.4420  -10.3686 C   0  0  0  0  0  0  0  0  0  0  0  0
   -2.0717   13.9935  -11.0748 C   0  0  0  0  0  0  0  0  0  0  0  0
   -2.2627   14.2439   -9.6094 C   0  0  0  0  0  0  0  0  0  0  0  0
   -6.0929   12.3066   -9.8631 H   0  0  0  0  0  0  0  0  0  0  0  0
   -8.1517   10.1219  -13.8733 H   0  0  0  0  0  0  0  0  0  0  0  0
   -6.8202   12.2294  -14.0822 H   0  0  0  0  0  0  0  0  0  0  0  0
   -6.3149   10.0400  -10.7471 H   0  0  0  0  0  0  0  0  0  0  0  0
   -8.0377    9.6171   -7.2499 H   0  0  0  0  0  0  0  0  0  0  0  0
   -6.7609   12.3104   -6.9078 H   0  0  0  0  0  0  0  0  0  0  0  0
   -4.5365   13.2843   -6.4555 H   0  0  0  0  0  0  0  0  0  0  0  0
   -2.6780    9.7532   -7.9999 H   0  0  0  0  0  0  0  0  0  0  0  0
   -4.8963    8.7799   -8.4714 H   0  0  0  0  0  0  0  0  0  0  0  0
   -2.1464   14.2197   -7.0777 H   0  0  0  0  0  0  0  0  0  0  0  0
   -2.1698   13.5533   -5.4097 H   0  0  0  0  0  0  0  0  0  0  0  0
   -0.6813   10.5543   -7.5304 H   0  0  0  0  0  0  0  0  0  0  0  0
    1.4790   14.3012   -6.0627 H   0  0  0  0  0  0  0  0  0  0  0  0
    0.2138   15.4529   -6.6095 H   0  0  0  0  0  0  0  0  0  0  0  0
    0.1971   14.8344   -4.9231 H   0  0  0  0  0  0  0  0  0  0  0  0
   -4.3503   15.0995  -10.6784 H   0  0  0  0  0  0  0  0  0  0  0  0
   -3.3270   12.3575  -10.1868 H   0  0  0  0  0  0  0  0  0  0  0  0
   -1.2811   13.3093  -11.4167 H   0  0  0  0  0  0  0  0  0  0  0  0
   -2.1756   14.8213  -11.7917 H   0  0  0  0  0  0  0  0  0  0  0  0
   -2.5050   15.2560   -9.2530 H   0  0  0  0  0  0  0  0  0  0  0  0
   -1.6106   13.7440   -8.8781 H   0  0  0  0  0  0  0  0  0  0  0  0
  1  2  2  0  0  0  0
  1  4  1  0  0  0  0
  1 11  1  0  0  0  0
  2  6  1  0  0  0  0
  3  4  2  0  0  0  0
  3  5  1  0  0  0  0
  5  6  1  0  0  0  0
  5  9  2  0  0  0  0
  6  7  1  0  0  0  0
  7  8  2  0  0  0  0
  7 10  1  0  0  0  0
  8  9  1  0  0  0  0
 10 12  2  0  0  0  0
 11 24  2  0  0  0  0
 11 25  2  0  0  0  0
 11 26  1  0  0  0  0
 12 13  1  0  0  0  0
 12 17  1  0  0  0  0
 13 14  2  0  0  0  0
 14 15  1  0  0  0  0
 15 16  1  0  0  0  0
 15 18  2  0  0  0  0
 16 17  2  0  0  0  0
 18 19  1  0  0  0  0
 18 22  1  0  0  0  0
 19 20  1  0  0  0  0
 20 21  1  0  0  0  0
 20 23  1  0  0  0  0
 21 22  2  0  0  0  0
 26 27  1  0  0  0  0
 27 28  1  0  0  0  0
 27 29  1  0  0  0  0
 28 29  1  0  0  0  0
  2 30  1  0  0  0  0
  3 31  1  0  0  0  0
  4 32  1  0  0  0  0
  6 33  1  0  0  0  0
 10 34  1  0  0  0  0
 13 35  1  0  0  0  0
 14 36  1  0  0  0  0
 16 37  1  0  0  0  0
 17 38  1  0  0  0  0
 19 39  1  0  0  0  0
 19 40  1  0  0  0  0
 22 41  1  0  0  0  0
 23 42  1  0  0  0  0
 23 43  1  0  0  0  0
 23 44  1  0  0  0  0
 26 45  1  0  0  0  0
 27 46  1  0  0  0  0
 28 47  1  0  0  0  0
 28 48  1  0  0  0  0
 29 49  1  0  0  0  0
 29 50  1  0  0  0  0
M  END
> <Name>
29

> <IC50[uM]>
0.18

$$$$
29
  -OEChem-05192314333D
 Structure written by MMmdl.
 50 54  0     1  0  0  0  0  0999 V2000
   -6.3727   12.3493  -11.9877 C   0  0  0  0  0  0  0  0  0  0  0  0
   -6.5190   11.8167  -10.7261 C   0  0  0  0  0  0  0  0  0  0  0  0
   -7.6919   10.5755  -13.0077 C   0  0  0  0  0  0  0  0  0  0  0  0
   -6.9476   11.7646  -13.1157 C   0  0  0  0  0  0  0  0  0  0  0  0
   -7.8131   10.0080  -11.7494 C   0  0  0  0  0  0  0  0  0  0  0  0
   -7.2399   10.6155  -10.5946 C   0  0  0  0  0  0  0  0  0  0  0  0
   -7.6088    9.7430   -9.5107 C   0  0  0  0  0  0  0  0  0  0  0  0
   -8.2764    8.7286   -9.9647 N   0  0  0  0  0  0  0  0  0  0  0  0
   -8.4188    8.8758  -11.2882 N   0  0  0  0  0  0  0  0  0  0  0  0
   -7.3326    9.8988   -8.0180 C   0  0  0  0  0  0  0  0  0  0  0  0
   -5.4060   13.8057  -12.2007 S   0  0  0  0  0  0  0  0  0  0  0  0
   -5.9763   10.4855   -7.7248 C   0  0  0  0  0  0  0  0  0  0  0  0
   -5.8692   11.7523   -7.1523 C   0  0  0  0  0  0  0  0  0  0  0  0
   -4.6115   12.3005   -6.8946 C   0  0  0  0  0  0  0  0  0  0  0  0
   -3.4415   11.5837   -7.2014 C   0  0  0  0  0  0  0  0  0  0  0  0
   -3.5677   10.3182   -7.7642 C   0  0  0  0  0  0  0  0  0  0  0  0
   -4.8209    9.7630   -8.0308 C   0  0  0  0  0  0  0  0  0  0  0  0
   -2.1027   12.1584   -6.9334 C   0  0  0  0  0  0  0  0  0  0  0  0
   -1.7604   13.4248   -6.4226 C   0  0  0  0  0  0  0  0  0  0  0  0
   -0.4260   13.4533   -6.3925 N   0  0  3  0  0  0  0  0  0  0  0  0
    0.1594   12.3444   -6.7934 N   0  0  0  0  0  0  0  0  0  0  0  0
   -0.8210   11.5507   -7.1379 C   0  0  0  0  0  0  0  0  0  0  0  0
    0.4194   14.5816   -5.9703 C   0  0  0  0  0  0  0  0  0  0  0  0
   -4.4605   13.4170  -13.2280 O   0  0  0  0  0  0  0  0  0  0  0  0
   -6.3362   14.9020  -12.4291 O   0  0  0  0  0  0  0  0  0  0  0  0
   -4.5495   14.1196  -10.6911 N   0  0  0  0  0  0  0  0  0  0  0  0
   -3.3000   13.4420  -10.3686 C   0  0  0  0  0  0  0  0  0  0  0  0
   -2.0717   13.9935  -11.0748 C   0  0  0  0  0  0  0  0  0  0  0  0
   -2.2627   14.2439   -9.6094 C   0  0  0  0  0  0  0  0  0  0  0  0
   -6.0929   12.3066   -9.8631 H   0  0  0  0  0  0  0  0  0  0  0  0
   -8.7077   10.7885  -13.3722 H   0  0  0  0  0  0  0  0  0  0  0  0
   -7.2168    9.8291  -13.6613 H   0  0  0  0  0  0  0  0  0  0  0  0
   -6.8202   12.2294  -14.0822 H   0  0  0  0  0  0  0  0  0  0  0  0
   -8.0377    9.6171   -7.2499 H   0  0  0  0  0  0  0  0  0  0  0  0
   -6.7609   12.3104   -6.9078 H   0  0  0  0  0  0  0  0  0  0  0  0
   -4.5365   13.2843   -6.4555 H   0  0  0  0  0  0  0  0  0  0  0  0
   -2.6780    9.7532   -7.9999 H   0  0  0  0  0  0  0  0  0  0  0  0
   -4.8963    8.7799   -8.4714 H   0  0  0  0  0  0  0  0  0  0  0  0
   -2.1464   14.2197   -7.0777 H   0  0  0  0  0  0  0  0  0  0  0  0
   -2.1698   13.5533   -5.4097 H   0  0  0  0  0  0  0  0  0  0  0  0
   -0.6813   10.5543   -7.5304 H   0  0  0  0  0  0  0  0  0  0  0  0
    1.4790   14.3012   -6.0627 H   0  0  0  0  0  0  0  0  0  0  0  0
    0.2138   15.4529   -6.6095 H   0  0  0  0  0  0  0  0  0  0  0  0
    0.1971   14.8344   -4.9231 H   0  0  0  0  0  0  0  0  0  0  0  0
   -4.3503   15.0995  -10.6784 H   0  0  0  0  0  0  0  0  0  0  0  0
   -3.3270   12.3575  -10.1868 H   0  0  0  0  0  0  0  0  0  0  0  0
   -1.2811   13.3093  -11.4167 H   0  0  0  0  0  0  0  0  0  0  0  0
   -2.1756   14.8213  -11.7917 H   0  0  0  0  0  0  0  0  0  0  0  0
   -2.5050   15.2560   -9.2530 H   0  0  0  0  0  0  0  0  0  0  0  0
   -1.6106   13.7440   -8.8781 H   0  0  0  0  0  0  0  0  0  0  0  0
  1  2  1  0  0  0  0
  1  4  2  0  0  0  0
  1 11  1  0  0  0  0
  2  6  2  0  0  0  0
  3  4  1  0  0  0  0
  3  5  1  0  0  0  0
  5  6  1  0  0  0  0
  5  9  2  0  0  0  0
  6  7  1  0  0  0  0
  7  8  2  0  0  0  0
  7 10  1  0  0  0  0
  8  9  1  0  0  0  0
 10 12  2  0  0  0  0
 11 24  2  0  0  0  0
 11 25  2  0  0  0  0
 11 26  1  0  0  0  0
 12 13  1  0  0  0  0
 12 17  1  0  0  0  0
 13 14  2  0  0  0  0
 14 15  1  0  0  0  0
 15 16  1  0  0  0  0
 15 18  2  0  0  0  0
 16 17  2  0  0  0  0
 18 19  1  0  0  0  0
 18 22  1  0  0  0  0
 19 20  1  0  0  0  0
 20 21  1  0  0  0  0
 20 23  1  0  0  0  0
 21 22  2  0  0  0  0
 26 27  1  0  0  0  0
 27 28  1  0  0  0  0
 27 29  1  0  0  0  0
 28 29  1  0  0  0  0
  2 30  1  0  0  0  0
  3 31  1  0  0  0  0
  3 32  1  0  0  0  0
  4 33  1  0  0  0  0
 10 34  1  0  0  0  0
 13 35  1  0  0  0  0
 14 36  1  0  0  0  0
 16 37  1  0  0  0  0
 17 38  1  0  0  0  0
 19 39  1  0  0  0  0
 19 40  1  0  0  0  0
 22 41  1  0  0  0  0
 23 42  1  0  0  0  0
 23 43  1  0  0  0  0
 23 44  1  0  0  0  0
 26 45  1  0  0  0  0
 27 46  1  0  0  0  0
 28 47  1  0  0  0  0
 28 48  1  0  0  0  0
 29 49  1  0  0  0  0
 29 50  1  0  0  0  0
M  END
> <Name>
29

> <IC50[uM]>
0.18

$$$$
29
  -OEChem-05192314333D
 Structure written by MMmdl.
 50 54  0     1  0  0  0  0  0999 V2000
   -6.3727   12.3493  -11.9877 C   0  0  0  0  0  0  0  0  0  0  0  0
   -6.5190   11.8167  -10.7261 C   0  0  0  0  0  0  0  0  0  0  0  0
   -7.6919   10.5755  -13.0077 C   0  0  0  0  0  0  0  0  0  0  0  0
   -6.9476   11.7646  -13.1157 C   0  0  0  0  0  0  0  0  0  0  0  0
   -7.8131   10.0080  -11.7494 C   0  0  3  0  0  0  0  0  0  0  0  0
   -7.2399   10.6155  -10.5946 C   0  0  0  0  0  0  0  0  0  0  0  0
   -7.6088    9.7430   -9.5107 C   0  0  0  0  0  0  0  0  0  0  0  0
   -8.2764    8.7286   -9.9647 N   0  0  0  0  0  0  0  0  0  0  0  0
   -8.4188    8.8758  -11.2882 N   0  0  0  0  0  0  0  0  0  0  0  0
   -7.3326    9.8988   -8.0180 C   0  0  0  0  0  0  0  0  0  0  0  0
   -5.4060   13.8057  -12.2007 S   0  0  0  0  0  0  0  0  0  0  0  0
   -5.9763   10.4855   -7.7248 C   0  0  0  0  0  0  0  0  0  0  0  0
   -5.8692   11.7523   -7.1523 C   0  0  0  0  0  0  0  0  0  0  0  0
   -4.6115   12.3005   -6.8946 C   0  0  0  0  0  0  0  0  0  0  0  0
   -3.4415   11.5837   -7.2014 C   0  0  0  0  0  0  0  0  0  0  0  0
   -3.5677   10.3182   -7.7642 C   0  0  0  0  0  0  0  0  0  0  0  0
   -4.8209    9.7630   -8.0308 C   0  0  0  0  0  0  0  0  0  0  0  0
   -2.1027   12.1584   -6.9334 C   0  0  0  0  0  0  0  0  0  0  0  0
   -1.7604   13.4248   -6.4226 C   0  0  0  0  0  0  0  0  0  0  0  0
   -0.4260   13.4533   -6.3925 N   0  0  3  0  0  0  0  0  0  0  0  0
    0.1594   12.3444   -6.7934 N   0  0  0  0  0  0  0  0  0  0  0  0
   -0.8210   11.5507   -7.1379 C   0  0  0  0  0  0  0  0  0  0  0  0
    0.4194   14.5816   -5.9703 C   0  0  0  0  0  0  0  0  0  0  0  0
   -4.4605   13.4170  -13.2280 O   0  0  0  0  0  0  0  0  0  0  0  0
   -6.3362   14.9020  -12.4291 O   0  0  0  0  0  0  0  0  0  0  0  0
   -4.5495   14.1196  -10.6911 N   0  0  0  0  0  0  0  0  0  0  0  0
   -3.3000   13.4420  -10.3686 C   0  0  0  0  0  0  0  0  0  0  0  0
   -2.0717   13.9935  -11.0748 C   0  0  0  0  0  0  0  0  0  0  0  0
   -2.2627   14.2439   -9.6094 C   0  0  0  0  0  0  0  0  0  0  0  0
   -6.0929   12.3066   -9.8631 H   0  0  0  0  0  0  0  0  0  0  0  0
   -8.1517   10.1219  -13.8733 H   0  0  0  0  0  0  0  0  0  0  0  0
   -6.8202   12.2294  -14.0822 H   0  0  0  0  0  0  0  0  0  0  0  0
   -6.8834    9.4437  -11.9142 H   0  0  0  0  0  0  0  0  0  0  0  0
   -8.0377    9.6171   -7.2499 H   0  0  0  0  0  0  0  0  0  0  0  0
   -6.7609   12.3104   -6.9078 H   0  0  0  0  0  0  0  0  0  0  0  0
   -4.5365   13.2843   -6.4555 H   0  0  0  0  0  0  0  0  0  0  0  0
   -2.6780    9.7532   -7.9999 H   0  0  0  0  0  0  0  0  0  0  0  0
   -4.8963    8.7799   -8.4714 H   0  0  0  0  0  0  0  0  0  0  0  0
   -2.1464   14.2197   -7.0777 H   0  0  0  0  0  0  0  0  0  0  0  0
   -2.1698   13.5533   -5.4097 H   0  0  0  0  0  0  0  0  0  0  0  0
   -0.6813   10.5543   -7.5304 H   0  0  0  0  0  0  0  0  0  0  0  0
    1.4790   14.3012   -6.0627 H   0  0  0  0  0  0  0  0  0  0  0  0
    0.2138   15.4529   -6.6095 H   0  0  0  0  0  0  0  0  0  0  0  0
    0.1971   14.8344   -4.9231 H   0  0  0  0  0  0  0  0  0  0  0  0
   -4.3503   15.0995  -10.6784 H   0  0  0  0  0  0  0  0  0  0  0  0
   -3.3270   12.3575  -10.1868 H   0  0  0  0  0  0  0  0  0  0  0  0
   -1.2811   13.3093  -11.4167 H   0  0  0  0  0  0  0  0  0  0  0  0
   -2.1756   14.8213  -11.7917 H   0  0  0  0  0  0  0  0  0  0  0  0
   -2.5050   15.2560   -9.2530 H   0  0  0  0  0  0  0  0  0  0  0  0
   -1.6106   13.7440   -8.8781 H   0  0  0  0  0  0  0  0  0  0  0  0
  1  2  2  0  0  0  0
  1  4  1  0  0  0  0
  1 11  1  0  0  0  0
  2  6  1  0  0  0  0
  3  4  2  0  0  0  0
  3  5  1  0  0  0  0
  5  6  1  0  0  0  0
  5  9  1  0  0  0  0
  6  7  2  0  0  0  0
  7  8  1  0  0  0  0
  7 10  1  0  0  0  0
  8  9  2  0  0  0  0
 10 12  2  0  0  0  0
 11 24  2  0  0  0  0
 11 25  2  0  0  0  0
 11 26  1  0  0  0  0
 12 13  1  0  0  0  0
 12 17  1  0  0  0  0
 13 14  2  0  0  0  0
 14 15  1  0  0  0  0
 15 16  1  0  0  0  0
 15 18  2  0  0  0  0
 16 17  2  0  0  0  0
 18 19  1  0  0  0  0
 18 22  1  0  0  0  0
 19 20  1  0  0  0  0
 20 21  1  0  0  0  0
 20 23  1  0  0  0  0
 21 22  2  0  0  0  0
 26 27  1  0  0  0  0
 27 28  1  0  0  0  0
 27 29  1  0  0  0  0
 28 29  1  0  0  0  0
  2 30  1  0  0  0  0
  3 31  1  0  0  0  0
  4 32  1  0  0  0  0
  5 33  1  0  0  0  0
 10 34  1  0  0  0  0
 13 35  1  0  0  0  0
 14 36  1  0  0  0  0
 16 37  1  0  0  0  0
 17 38  1  0  0  0  0
 19 39  1  0  0  0  0
 19 40  1  0  0  0  0
 22 41  1  0  0  0  0
 23 42  1  0  0  0  0
 23 43  1  0  0  0  0
 23 44  1  0  0  0  0
 26 45  1  0  0  0  0
 27 46  1  0  0  0  0
 28 47  1  0  0  0  0
 28 48  1  0  0  0  0
 29 49  1  0  0  0  0
 29 50  1  0  0  0  0
M  END
> <Name>
29

> <IC50[uM]>
0.18

$$$$
29
  -OEChem-05192314333D
 Structure written by MMmdl.
 50 54  0     1  0  0  0  0  0999 V2000
   -6.3727   12.3493  -11.9877 C   0  0  0  0  0  0  0  0  0  0  0  0
   -6.5190   11.8167  -10.7261 C   0  0  0  0  0  0  0  0  0  0  0  0
   -7.6919   10.5755  -13.0077 C   0  0  0  0  0  0  0  0  0  0  0  0
   -6.9476   11.7646  -13.1157 C   0  0  0  0  0  0  0  0  0  0  0  0
   -7.8131   10.0080  -11.7494 C   0  0  0  0  0  0  0  0  0  0  0  0
   -7.2399   10.6155  -10.5946 C   0  0  0  0  0  0  0  0  0  0  0  0
   -7.6088    9.7430   -9.5107 C   0  0  0  0  0  0  0  0  0  0  0  0
   -8.2764    8.7286   -9.9647 N   0  0  0  0  0  0  0  0  0  0  0  0
   -8.4188    8.8758  -11.2882 N   0  0  0  0  0  0  0  0  0  0  0  0
   -7.3326    9.8988   -8.0180 C   0  0  0  0  0  0  0  0  0  0  0  0
   -5.4060   13.8057  -12.2007 S   0  0  0  0  0  0  0  0  0  0  0  0
   -5.9763   10.4855   -7.7248 C   0  0  0  0  0  0  0  0  0  0  0  0
   -5.8692   11.7523   -7.1523 C   0  0  0  0  0  0  0  0  0  0  0  0
   -4.6115   12.3005   -6.8946 C   0  0  0  0  0  0  0  0  0  0  0  0
   -3.4415   11.5837   -7.2014 C   0  0  0  0  0  0  0  0  0  0  0  0
   -3.5677   10.3182   -7.7642 C   0  0  0  0  0  0  0  0  0  0  0  0
   -4.8209    9.7630   -8.0308 C   0  0  0  0  0  0  0  0  0  0  0  0
   -2.1027   12.1584   -6.9334 C   0  0  0  0  0  0  0  0  0  0  0  0
   -1.7604   13.4248   -6.4226 C   0  0  0  0  0  0  0  0  0  0  0  0
   -0.4260   13.4533   -6.3925 N   0  0  3  0  0  0  0  0  0  0  0  0
    0.1594   12.3444   -6.7934 N   0  0  0  0  0  0  0  0  0  0  0  0
   -0.8210   11.5507   -7.1379 C   0  0  0  0  0  0  0  0  0  0  0  0
    0.4194   14.5816   -5.9703 C   0  0  0  0  0  0  0  0  0  0  0  0
   -4.4605   13.4170  -13.2280 O   0  0  0  0  0  0  0  0  0  0  0  0
   -6.3362   14.9020  -12.4291 O   0  0  0  0  0  0  0  0  0  0  0  0
   -4.5495   14.1196  -10.6911 N   0  0  0  0  0  0  0  0  0  0  0  0
   -3.3000   13.4420  -10.3686 C   0  0  0  0  0  0  0  0  0  0  0  0
   -2.0717   13.9935  -11.0748 C   0  0  0  0  0  0  0  0  0  0  0  0
   -2.2627   14.2439   -9.6094 C   0  0  0  0  0  0  0  0  0  0  0  0
   -6.0929   12.3066   -9.8631 H   0  0  0  0  0  0  0  0  0  0  0  0
   -8.1517   10.1219  -13.8733 H   0  0  0  0  0  0  0  0  0  0  0  0
   -7.6202   12.5178  -13.5518 H   0  0  0  0  0  0  0  0  0  0  0  0
   -6.1251   11.5580  -13.8163 H   0  0  0  0  0  0  0  0  0  0  0  0
   -8.0377    9.6171   -7.2499 H   0  0  0  0  0  0  0  0  0  0  0  0
   -6.7609   12.3104   -6.9078 H   0  0  0  0  0  0  0  0  0  0  0  0
   -4.5365   13.2843   -6.4555 H   0  0  0  0  0  0  0  0  0  0  0  0
   -2.6780    9.7532   -7.9999 H   0  0  0  0  0  0  0  0  0  0  0  0
   -4.8963    8.7799   -8.4714 H   0  0  0  0  0  0  0  0  0  0  0  0
   -2.1464   14.2197   -7.0777 H   0  0  0  0  0  0  0  0  0  0  0  0
   -2.1698   13.5533   -5.4097 H   0  0  0  0  0  0  0  0  0  0  0  0
   -0.6813   10.5543   -7.5304 H   0  0  0  0  0  0  0  0  0  0  0  0
    1.4790   14.3012   -6.0627 H   0  0  0  0  0  0  0  0  0  0  0  0
    0.2138   15.4529   -6.6095 H   0  0  0  0  0  0  0  0  0  0  0  0
    0.1971   14.8344   -4.9231 H   0  0  0  0  0  0  0  0  0  0  0  0
   -4.3503   15.0995  -10.6784 H   0  0  0  0  0  0  0  0  0  0  0  0
   -3.3270   12.3575  -10.1868 H   0  0  0  0  0  0  0  0  0  0  0  0
   -1.2811   13.3093  -11.4167 H   0  0  0  0  0  0  0  0  0  0  0  0
   -2.1756   14.8213  -11.7917 H   0  0  0  0  0  0  0  0  0  0  0  0
   -2.5050   15.2560   -9.2530 H   0  0  0  0  0  0  0  0  0  0  0  0
   -1.6106   13.7440   -8.8781 H   0  0  0  0  0  0  0  0  0  0  0  0
  1  2  2  0  0  0  0
  1  4  1  0  0  0  0
  1 11  1  0  0  0  0
  2  6  1  0  0  0  0
  3  4  1  0  0  0  0
  3  5  2  0  0  0  0
  5  6  1  0  0  0  0
  5  9  1  0  0  0  0
  6  7  2  0  0  0  0
  7  8  1  0  0  0  0
  7 10  1  0  0  0  0
  8  9  2  0  0  0  0
 10 12  2  0  0  0  0
 11 24  2  0  0  0  0
 11 25  2  0  0  0  0
 11 26  1  0  0  0  0
 12 13  1  0  0  0  0
 12 17  1  0  0  0  0
 13 14  2  0  0  0  0
 14 15  1  0  0  0  0
 15 16  1  0  0  0  0
 15 18  2  0  0  0  0
 16 17  2  0  0  0  0
 18 19  1  0  0  0  0
 18 22  1  0  0  0  0
 19 20  1  0  0  0  0
 20 21  1  0  0  0  0
 20 23  1  0  0  0  0
 21 22  2  0  0  0  0
 26 27  1  0  0  0  0
 27 28  1  0  0  0  0
 27 29  1  0  0  0  0
 28 29  1  0  0  0  0
  2 30  1  0  0  0  0
  3 31  1  0  0  0  0
  4 32  1  0  0  0  0
  4 33  1  0  0  0  0
 10 34  1  0  0  0  0
 13 35  1  0  0  0  0
 14 36  1  0  0  0  0
 16 37  1  0  0  0  0
 17 38  1  0  0  0  0
 19 39  1  0  0  0  0
 19 40  1  0  0  0  0
 22 41  1  0  0  0  0
 23 42  1  0  0  0  0
 23 43  1  0  0  0  0
 23 44  1  0  0  0  0
 26 45  1  0  0  0  0
 27 46  1  0  0  0  0
 28 47  1  0  0  0  0
 28 48  1  0  0  0  0
 29 49  1  0  0  0  0
 29 50  1  0  0  0  0
M  END
> <Name>
29

> <IC50[uM]>
0.18

$$$$
29
  -OEChem-05192314333D
 Structure written by MMmdl.
 50 54  0     1  0  0  0  0  0999 V2000
   -6.3727   12.3493  -11.9877 C   0  0  0  0  0  0  0  0  0  0  0  0
   -6.5190   11.8167  -10.7261 C   0  0  0  0  0  0  0  0  0  0  0  0
   -7.6919   10.5755  -13.0077 C   0  0  0  0  0  0  0  0  0  0  0  0
   -6.9476   11.7646  -13.1157 C   0  0  0  0  0  0  0  0  0  0  0  0
   -7.8131   10.0080  -11.7494 C   0  0  0  0  0  0  0  0  0  0  0  0
   -7.2399   10.6155  -10.5946 C   0  0  0  0  0  0  0  0  0  0  0  0
   -7.6088    9.7430   -9.5107 C   0  0  0  0  0  0  0  0  0  0  0  0
   -8.2764    8.7286   -9.9647 N   0  0  0  0  0  0  0  0  0  0  0  0
   -8.4188    8.8758  -11.2882 N   0  0  0  0  0  0  0  0  0  0  0  0
   -7.3326    9.8988   -8.0180 C   0  0  0  0  0  0  0  0  0  0  0  0
   -5.4060   13.8057  -12.2007 S   0  0  0  0  0  0  0  0  0  0  0  0
   -5.9763   10.4855   -7.7248 C   0  0  0  0  0  0  0  0  0  0  0  0
   -5.8692   11.7523   -7.1523 C   0  0  0  0  0  0  0  0  0  0  0  0
   -4.6115   12.3005   -6.8946 C   0  0  0  0  0  0  0  0  0  0  0  0
   -3.4415   11.5837   -7.2014 C   0  0  0  0  0  0  0  0  0  0  0  0
   -3.5677   10.3182   -7.7642 C   0  0  0  0  0  0  0  0  0  0  0  0
   -4.8209    9.7630   -8.0308 C   0  0  0  0  0  0  0  0  0  0  0  0
   -2.1027   12.1584   -6.9334 C   0  0  0  0  0  0  0  0  0  0  0  0
   -1.7604   13.4248   -6.4226 C   0  0  0  0  0  0  0  0  0  0  0  0
   -0.4260   13.4533   -6.3925 N   0  0  3  0  0  0  0  0  0  0  0  0
    0.1594   12.3444   -6.7934 N   0  0  0  0  0  0  0  0  0  0  0  0
   -0.8210   11.5507   -7.1379 C   0  0  0  0  0  0  0  0  0  0  0  0
    0.4194   14.5816   -5.9703 C   0  0  0  0  0  0  0  0  0  0  0  0
   -4.4605   13.4170  -13.2280 O   0  0  0  0  0  0  0  0  0  0  0  0
   -6.3362   14.9020  -12.4291 O   0  0  0  0  0  0  0  0  0  0  0  0
   -4.5495   14.1196  -10.6911 N   0  0  0  0  0  0  0  0  0  0  0  0
   -3.3000   13.4420  -10.3686 C   0  0  0  0  0  0  0  0  0  0  0  0
   -2.0717   13.9935  -11.0748 C   0  0  0  0  0  0  0  0  0  0  0  0
   -2.2627   14.2439   -9.6094 C   0  0  0  0  0  0  0  0  0  0  0  0
   -5.5094   11.6373  -10.3279 H   0  0  0  0  0  0  0  0  0  0  0  0
   -7.0275   12.5723  -10.1093 H   0  0  0  0  0  0  0  0  0  0  0  0
   -8.1517   10.1219  -13.8733 H   0  0  0  0  0  0  0  0  0  0  0  0
   -6.8202   12.2294  -14.0822 H   0  0  0  0  0  0  0  0  0  0  0  0
   -8.0377    9.6171   -7.2499 H   0  0  0  0  0  0  0  0  0  0  0  0
   -6.7609   12.3104   -6.9078 H   0  0  0  0  0  0  0  0  0  0  0  0
   -4.5365   13.2843   -6.4555 H   0  0  0  0  0  0  0  0  0  0  0  0
   -2.6780    9.7532   -7.9999 H   0  0  0  0  0  0  0  0  0  0  0  0
   -4.8963    8.7799   -8.4714 H   0  0  0  0  0  0  0  0  0  0  0  0
   -2.1464   14.2197   -7.0777 H   0  0  0  0  0  0  0  0  0  0  0  0
   -2.1698   13.5533   -5.4097 H   0  0  0  0  0  0  0  0  0  0  0  0
   -0.6813   10.5543   -7.5304 H   0  0  0  0  0  0  0  0  0  0  0  0
    1.4790   14.3012   -6.0627 H   0  0  0  0  0  0  0  0  0  0  0  0
    0.2138   15.4529   -6.6095 H   0  0  0  0  0  0  0  0  0  0  0  0
    0.1971   14.8344   -4.9231 H   0  0  0  0  0  0  0  0  0  0  0  0
   -4.3503   15.0995  -10.6784 H   0  0  0  0  0  0  0  0  0  0  0  0
   -3.3270   12.3575  -10.1868 H   0  0  0  0  0  0  0  0  0  0  0  0
   -1.2811   13.3093  -11.4167 H   0  0  0  0  0  0  0  0  0  0  0  0
   -2.1756   14.8213  -11.7917 H   0  0  0  0  0  0  0  0  0  0  0  0
   -2.5050   15.2560   -9.2530 H   0  0  0  0  0  0  0  0  0  0  0  0
   -1.6106   13.7440   -8.8781 H   0  0  0  0  0  0  0  0  0  0  0  0
  1  2  1  0  0  0  0
  1  4  2  0  0  0  0
  1 11  1  0  0  0  0
  2  6  1  0  0  0  0
  3  4  1  0  0  0  0
  3  5  2  0  0  0  0
  5  6  1  0  0  0  0
  5  9  1  0  0  0  0
  6  7  2  0  0  0  0
  7  8  1  0  0  0  0
  7 10  1  0  0  0  0
  8  9  2  0  0  0  0
 10 12  2  0  0  0  0
 11 24  2  0  0  0  0
 11 25  2  0  0  0  0
 11 26  1  0  0  0  0
 12 13  1  0  0  0  0
 12 17  1  0  0  0  0
 13 14  2  0  0  0  0
 14 15  1  0  0  0  0
 15 16  1  0  0  0  0
 15 18  2  0  0  0  0
 16 17  2  0  0  0  0
 18 19  1  0  0  0  0
 18 22  1  0  0  0  0
 19 20  1  0  0  0  0
 20 21  1  0  0  0  0
 20 23  1  0  0  0  0
 21 22  2  0  0  0  0
 26 27  1  0  0  0  0
 27 28  1  0  0  0  0
 27 29  1  0  0  0  0
 28 29  1  0  0  0  0
  2 30  1  0  0  0  0
  2 31  1  0  0  0  0
  3 32  1  0  0  0  0
  4 33  1  0  0  0  0
 10 34  1  0  0  0  0
 13 35  1  0  0  0  0
 14 36  1  0  0  0  0
 16 37  1  0  0  0  0
 17 38  1  0  0  0  0
 19 39  1  0  0  0  0
 19 40  1  0  0  0  0
 22 41  1  0  0  0  0
 23 42  1  0  0  0  0
 23 43  1  0  0  0  0
 23 44  1  0  0  0  0
 26 45  1  0  0  0  0
 27 46  1  0  0  0  0
 28 47  1  0  0  0  0
 28 48  1  0  0  0  0
 29 49  1  0  0  0  0
 29 50  1  0  0  0  0
M  END
> <Name>
29

> <IC50[uM]>
0.18

$$$$
29
  -OEChem-05192314333D
 Structure written by MMmdl.
 50 54  0     1  0  0  0  0  0999 V2000
   -6.3727   12.3493  -11.9877 C   0  0  3  0  0  0  0  0  0  0  0  0
   -6.5190   11.8167  -10.7261 C   0  0  0  0  0  0  0  0  0  0  0  0
   -7.6919   10.5755  -13.0077 C   0  0  0  0  0  0  0  0  0  0  0  0
   -6.9476   11.7646  -13.1157 C   0  0  0  0  0  0  0  0  0  0  0  0
   -7.8131   10.0080  -11.7494 C   0  0  0  0  0  0  0  0  0  0  0  0
   -7.2399   10.6155  -10.5946 C   0  0  0  0  0  0  0  0  0  0  0  0
   -7.6088    9.7430   -9.5107 C   0  0  0  0  0  0  0  0  0  0  0  0
   -8.2764    8.7286   -9.9647 N   0  0  0  0  0  0  0  0  0  0  0  0
   -8.4188    8.8758  -11.2882 N   0  0  0  0  0  0  0  0  0  0  0  0
   -7.3326    9.8988   -8.0180 C   0  0  0  0  0  0  0  0  0  0  0  0
   -5.4060   13.8057  -12.2007 S   0  0  0  0  0  0  0  0  0  0  0  0
   -5.9763   10.4855   -7.7248 C   0  0  0  0  0  0  0  0  0  0  0  0
   -5.8692   11.7523   -7.1523 C   0  0  0  0  0  0  0  0  0  0  0  0
   -4.6115   12.3005   -6.8946 C   0  0  0  0  0  0  0  0  0  0  0  0
   -3.4415   11.5837   -7.2014 C   0  0  0  0  0  0  0  0  0  0  0  0
   -3.5677   10.3182   -7.7642 C   0  0  0  0  0  0  0  0  0  0  0  0
   -4.8209    9.7630   -8.0308 C   0  0  0  0  0  0  0  0  0  0  0  0
   -2.1027   12.1584   -6.9334 C   0  0  0  0  0  0  0  0  0  0  0  0
   -1.7604   13.4248   -6.4226 C   0  0  0  0  0  0  0  0  0  0  0  0
   -0.4260   13.4533   -6.3925 N   0  0  0  0  0  0  0  0  0  0  0  0
    0.1594   12.3444   -6.7934 N   0  0  0  0  0  0  0  0  0  0  0  0
   -0.8210   11.5507   -7.1379 C   0  0  0  0  0  0  0  0  0  0  0  0
    0.4194   14.5816   -5.9703 C   0  0  0  0  0  0  0  0  0  0  0  0
   -4.4605   13.4170  -13.2280 O   0  0  0  0  0  0  0  0  0  0  0  0
   -6.3362   14.9020  -12.4291 O   0  0  0  0  0  0  0  0  0  0  0  0
   -4.5495   14.1196  -10.6911 N   0  0  0  0  0  0  0  0  0  0  0  0
   -3.3000   13.4420  -10.3686 C   0  0  0  0  0  0  0  0  0  0  0  0
   -2.0717   13.9935  -11.0748 C   0  0  0  0  0  0  0  0  0  0  0  0
   -2.2627   14.2439   -9.6094 C   0  0  0  0  0  0  0  0  0  0  0  0
   -7.2734   12.9632  -11.8395 H   0  0  0  0  0  0  0  0  0  0  0  0
   -6.0929   12.3066   -9.8631 H   0  0  0  0  0  0  0  0  0  0  0  0
   -8.1517   10.1219  -13.8733 H   0  0  0  0  0  0  0  0  0  0  0  0
   -6.8202   12.2294  -14.0822 H   0  0  0  0  0  0  0  0  0  0  0  0
   -8.0377    9.6171   -7.2499 H   0  0  0  0  0  0  0  0  0  0  0  0
   -6.7609   12.3104   -6.9078 H   0  0  0  0  0  0  0  0  0  0  0  0
   -4.5365   13.2843   -6.4555 H   0  0  0  0  0  0  0  0  0  0  0  0
   -3.4318   12.0299   -8.2068 H   0  0  0  0  0  0  0  0  0  0  0  0
   -2.6780    9.7532   -7.9999 H   0  0  0  0  0  0  0  0  0  0  0  0
   -4.8963    8.7799   -8.4714 H   0  0  0  0  0  0  0  0  0  0  0  0
   -2.4366   14.2100   -6.1184 H   0  0  0  0  0  0  0  0  0  0  0  0
   -0.6813   10.5543   -7.5304 H   0  0  0  0  0  0  0  0  0  0  0  0
    1.4790   14.3012   -6.0627 H   0  0  0  0  0  0  0  0  0  0  0  0
    0.2138   15.4529   -6.6095 H   0  0  0  0  0  0  0  0  0  0  0  0
    0.1971   14.8344   -4.9231 H   0  0  0  0  0  0  0  0  0  0  0  0
   -4.3503   15.0995  -10.6784 H   0  0  0  0  0  0  0  0  0  0  0  0
   -3.3270   12.3575  -10.1868 H   0  0  0  0  0  0  0  0  0  0  0  0
   -1.2811   13.3093  -11.4167 H   0  0  0  0  0  0  0  0  0  0  0  0
   -2.1756   14.8213  -11.7917 H   0  0  0  0  0  0  0  0  0  0  0  0
   -2.5050   15.2560   -9.2530 H   0  0  0  0  0  0  0  0  0  0  0  0
   -1.6106   13.7440   -8.8781 H   0  0  0  0  0  0  0  0  0  0  0  0
  1  2  1  0  0  0  0
  1  4  1  0  0  0  0
  1 11  1  0  0  0  0
  2  6  2  0  0  0  0
  3  4  2  0  0  0  0
  3  5  1  0  0  0  0
  5  6  1  0  0  0  0
  5  9  2  0  0  0  0
  6  7  1  0  0  0  0
  7  8  2  0  0  0  0
  7 10  1  0  0  0  0
  8  9  1  0  0  0  0
 10 12  2  0  0  0  0
 11 24  2  0  0  0  0
 11 25  2  0  0  0  0
 11 26  1  0  0  0  0
 12 13  1  0  0  0  0
 12 17  1  0  0  0  0
 13 14  2  0  0  0  0
 14 15  1  0  0  0  0
 15 16  1  0  0  0  0
 15 18  1  0  0  0  0
 16 17  2  0  0  0  0
 18 19  2  0  0  0  0
 18 22  1  0  0  0  0
 19 20  1  0  0  0  0
 20 21  1  0  0  0  0
 20 23  1  0  0  0  0
 21 22  2  0  0  0  0
 26 27  1  0  0  0  0
 27 28  1  0  0  0  0
 27 29  1  0  0  0  0
 28 29  1  0  0  0  0
  1 30  1  0  0  0  0
  2 31  1  0  0  0  0
  3 32  1  0  0  0  0
  4 33  1  0  0  0  0
 10 34  1  0  0  0  0
 13 35  1  0  0  0  0
 14 36  1  0  0  0  0
 15 37  1  0  0  0  0
 16 38  1  0  0  0  0
 17 39  1  0  0  0  0
 19 40  1  0  0  0  0
 22 41  1  0  0  0  0
 23 42  1  0  0  0  0
 23 43  1  0  0  0  0
 23 44  1  0  0  0  0
 26 45  1  0  0  0  0
 27 46  1  0  0  0  0
 28 47  1  0  0  0  0
 28 48  1  0  0  0  0
 29 49  1  0  0  0  0
 29 50  1  0  0  0  0
M  END
> <Name>
29

> <IC50[uM]>
0.18

$$$$
29
  -OEChem-05192314333D
 Structure written by MMmdl.
 50 54  0     1  0  0  0  0  0999 V2000
   -6.3727   12.3493  -11.9877 C   0  0  0  0  0  0  0  0  0  0  0  0
   -6.5190   11.8167  -10.7261 C   0  0  0  0  0  0  0  0  0  0  0  0
   -7.6919   10.5755  -13.0077 C   0  0  0  0  0  0  0  0  0  0  0  0
   -6.9476   11.7646  -13.1157 C   0  0  0  0  0  0  0  0  0  0  0  0
   -7.8131   10.0080  -11.7494 C   0  0  0  0  0  0  0  0  0  0  0  0
   -7.2399   10.6155  -10.5946 C   0  0  3  0  0  0  0  0  0  0  0  0
   -7.6088    9.7430   -9.5107 C   0  0  0  0  0  0  0  0  0  0  0  0
   -8.2764    8.7286   -9.9647 N   0  0  0  0  0  0  0  0  0  0  0  0
   -8.4188    8.8758  -11.2882 N   0  0  0  0  0  0  0  0  0  0  0  0
   -7.3326    9.8988   -8.0180 C   0  0  0  0  0  0  0  0  0  0  0  0
   -5.4060   13.8057  -12.2007 S   0  0  0  0  0  0  0  0  0  0  0  0
   -5.9763   10.4855   -7.7248 C   0  0  0  0  0  0  0  0  0  0  0  0
   -5.8692   11.7523   -7.1523 C   0  0  0  0  0  0  0  0  0  0  0  0
   -4.6115   12.3005   -6.8946 C   0  0  0  0  0  0  0  0  0  0  0  0
   -3.4415   11.5837   -7.2014 C   0  0  0  0  0  0  0  0  0  0  0  0
   -3.5677   10.3182   -7.7642 C   0  0  0  0  0  0  0  0  0  0  0  0
   -4.8209    9.7630   -8.0308 C   0  0  0  0  0  0  0  0  0  0  0  0
   -2.1027   12.1584   -6.9334 C   0  0  0  0  0  0  0  0  0  0  0  0
   -1.7604   13.4248   -6.4226 C   0  0  0  0  0  0  0  0  0  0  0  0
   -0.4260   13.4533   -6.3925 N   0  0  0  0  0  0  0  0  0  0  0  0
    0.1594   12.3444   -6.7934 N   0  0  0  0  0  0  0  0  0  0  0  0
   -0.8210   11.5507   -7.1379 C   0  0  0  0  0  0  0  0  0  0  0  0
    0.4194   14.5816   -5.9703 C   0  0  0  0  0  0  0  0  0  0  0  0
   -4.4605   13.4170  -13.2280 O   0  0  0  0  0  0  0  0  0  0  0  0
   -6.3362   14.9020  -12.4291 O   0  0  0  0  0  0  0  0  0  0  0  0
   -4.5495   14.1196  -10.6911 N   0  0  0  0  0  0  0  0  0  0  0  0
   -3.3000   13.4420  -10.3686 C   0  0  0  0  0  0  0  0  0  0  0  0
   -2.0717   13.9935  -11.0748 C   0  0  0  0  0  0  0  0  0  0  0  0
   -2.2627   14.2439   -9.6094 C   0  0  0  0  0  0  0  0  0  0  0  0
   -6.0929   12.3066   -9.8631 H   0  0  0  0  0  0  0  0  0  0  0  0
   -8.1517   10.1219  -13.8733 H   0  0  0  0  0  0  0  0  0  0  0  0
   -6.8202   12.2294  -14.0822 H   0  0  0  0  0  0  0  0  0  0  0  0
   -6.3149   10.0400  -10.7471 H   0  0  0  0  0  0  0  0  0  0  0  0
   -8.0377    9.6171   -7.2499 H   0  0  0  0  0  0  0  0  0  0  0  0
   -6.7609   12.3104   -6.9078 H   0  0  0  0  0  0  0  0  0  0  0  0
   -4.5365   13.2843   -6.4555 H   0  0  0  0  0  0  0  0  0  0  0  0
   -3.4318   12.0299   -8.2068 H   0  0  0  0  0  0  0  0  0  0  0  0
   -2.6780    9.7532   -7.9999 H   0  0  0  0  0  0  0  0  0  0  0  0
   -4.8963    8.7799   -8.4714 H   0  0  0  0  0  0  0  0  0  0  0  0
   -2.4366   14.2100   -6.1184 H   0  0  0  0  0  0  0  0  0  0  0  0
   -0.6813   10.5543   -7.5304 H   0  0  0  0  0  0  0  0  0  0  0  0
    1.4790   14.3012   -6.0627 H   0  0  0  0  0  0  0  0  0  0  0  0
    0.2138   15.4529   -6.6095 H   0  0  0  0  0  0  0  0  0  0  0  0
    0.1971   14.8344   -4.9231 H   0  0  0  0  0  0  0  0  0  0  0  0
   -4.3503   15.0995  -10.6784 H   0  0  0  0  0  0  0  0  0  0  0  0
   -3.3270   12.3575  -10.1868 H   0  0  0  0  0  0  0  0  0  0  0  0
   -1.2811   13.3093  -11.4167 H   0  0  0  0  0  0  0  0  0  0  0  0
   -2.1756   14.8213  -11.7917 H   0  0  0  0  0  0  0  0  0  0  0  0
   -2.5050   15.2560   -9.2530 H   0  0  0  0  0  0  0  0  0  0  0  0
   -1.6106   13.7440   -8.8781 H   0  0  0  0  0  0  0  0  0  0  0  0
  1  2  2  0  0  0  0
  1  4  1  0  0  0  0
  1 11  1  0  0  0  0
  2  6  1  0  0  0  0
  3  4  2  0  0  0  0
  3  5  1  0  0  0  0
  5  6  1  0  0  0  0
  5  9  2  0  0  0  0
  6  7  1  0  0  0  0
  7  8  2  0  0  0  0
  7 10  1  0  0  0  0
  8  9  1  0  0  0  0
 10 12  2  0  0  0  0
 11 24  2  0  0  0  0
 11 25  2  0  0  0  0
 11 26  1  0  0  0  0
 12 13  1  0  0  0  0
 12 17  1  0  0  0  0
 13 14  2  0  0  0  0
 14 15  1  0  0  0  0
 15 16  1  0  0  0  0
 15 18  1  0  0  0  0
 16 17  2  0  0  0  0
 18 19  2  0  0  0  0
 18 22  1  0  0  0  0
 19 20  1  0  0  0  0
 20 21  1  0  0  0  0
 20 23  1  0  0  0  0
 21 22  2  0  0  0  0
 26 27  1  0  0  0  0
 27 28  1  0  0  0  0
 27 29  1  0  0  0  0
 28 29  1  0  0  0  0
  2 30  1  0  0  0  0
  3 31  1  0  0  0  0
  4 32  1  0  0  0  0
  6 33  1  0  0  0  0
 10 34  1  0  0  0  0
 13 35  1  0  0  0  0
 14 36  1  0  0  0  0
 15 37  1  0  0  0  0
 16 38  1  0  0  0  0
 17 39  1  0  0  0  0
 19 40  1  0  0  0  0
 22 41  1  0  0  0  0
 23 42  1  0  0  0  0
 23 43  1  0  0  0  0
 23 44  1  0  0  0  0
 26 45  1  0  0  0  0
 27 46  1  0  0  0  0
 28 47  1  0  0  0  0
 28 48  1  0  0  0  0
 29 49  1  0  0  0  0
 29 50  1  0  0  0  0
M  END
> <Name>
29

> <IC50[uM]>
0.18

$$$$
29
  -OEChem-05192314333D
 Structure written by MMmdl.
 50 54  0     0  0  0  0  0  0999 V2000
   -6.3727   12.3493  -11.9877 C   0  0  0  0  0  0  0  0  0  0  0  0
   -6.5190   11.8167  -10.7261 C   0  0  0  0  0  0  0  0  0  0  0  0
   -7.6919   10.5755  -13.0077 C   0  0  0  0  0  0  0  0  0  0  0  0
   -6.9476   11.7646  -13.1157 C   0  0  0  0  0  0  0  0  0  0  0  0
   -7.8131   10.0080  -11.7494 C   0  0  0  0  0  0  0  0  0  0  0  0
   -7.2399   10.6155  -10.5946 C   0  0  0  0  0  0  0  0  0  0  0  0
   -7.6088    9.7430   -9.5107 C   0  0  0  0  0  0  0  0  0  0  0  0
   -8.2764    8.7286   -9.9647 N   0  0  0  0  0  0  0  0  0  0  0  0
   -8.4188    8.8758  -11.2882 N   0  0  0  0  0  0  0  0  0  0  0  0
   -7.3326    9.8988   -8.0180 C   0  0  0  0  0  0  0  0  0  0  0  0
   -5.4060   13.8057  -12.2007 S   0  0  0  0  0  0  0  0  0  0  0  0
   -5.9763   10.4855   -7.7248 C   0  0  0  0  0  0  0  0  0  0  0  0
   -5.8692   11.7523   -7.1523 C   0  0  0  0  0  0  0  0  0  0  0  0
   -4.6115   12.3005   -6.8946 C   0  0  0  0  0  0  0  0  0  0  0  0
   -3.4415   11.5837   -7.2014 C   0  0  0  0  0  0  0  0  0  0  0  0
   -3.5677   10.3182   -7.7642 C   0  0  0  0  0  0  0  0  0  0  0  0
   -4.8209    9.7630   -8.0308 C   0  0  0  0  0  0  0  0  0  0  0  0
   -2.1027   12.1584   -6.9334 C   0  0  0  0  0  0  0  0  0  0  0  0
   -1.7604   13.4248   -6.4226 C   0  0  0  0  0  0  0  0  0  0  0  0
   -0.4260   13.4533   -6.3925 N   0  0  0  0  0  0  0  0  0  0  0  0
    0.1594   12.3444   -6.7934 N   0  0  0  0  0  0  0  0  0  0  0  0
   -0.8210   11.5507   -7.1379 C   0  0  0  0  0  0  0  0  0  0  0  0
    0.4194   14.5816   -5.9703 C   0  0  0  0  0  0  0  0  0  0  0  0
   -4.4605   13.4170  -13.2280 O   0  0  0  0  0  0  0  0  0  0  0  0
   -6.3362   14.9020  -12.4291 O   0  0  0  0  0  0  0  0  0  0  0  0
   -4.5495   14.1196  -10.6911 N   0  0  0  0  0  0  0  0  0  0  0  0
   -3.3000   13.4420  -10.3686 C   0  0  0  0  0  0  0  0  0  0  0  0
   -2.0717   13.9935  -11.0748 C   0  0  0  0  0  0  0  0  0  0  0  0
   -2.2627   14.2439   -9.6094 C   0  0  0  0  0  0  0  0  0  0  0  0
   -6.0929   12.3066   -9.8631 H   0  0  0  0  0  0  0  0  0  0  0  0
   -8.7077   10.7885  -13.3722 H   0  0  0  0  0  0  0  0  0  0  0  0
   -7.2168    9.8291  -13.6613 H   0  0  0  0  0  0  0  0  0  0  0  0
   -6.8202   12.2294  -14.0822 H   0  0  0  0  0  0  0  0  0  0  0  0
   -8.0377    9.6171   -7.2499 H   0  0  0  0  0  0  0  0  0  0  0  0
   -6.7609   12.3104   -6.9078 H   0  0  0  0  0  0  0  0  0  0  0  0
   -4.5365   13.2843   -6.4555 H   0  0  0  0  0  0  0  0  0  0  0  0
   -3.4318   12.0299   -8.2068 H   0  0  0  0  0  0  0  0  0  0  0  0
   -2.6780    9.7532   -7.9999 H   0  0  0  0  0  0  0  0  0  0  0  0
   -4.8963    8.7799   -8.4714 H   0  0  0  0  0  0  0  0  0  0  0  0
   -2.4366   14.2100   -6.1184 H   0  0  0  0  0  0  0  0  0  0  0  0
   -0.6813   10.5543   -7.5304 H   0  0  0  0  0  0  0  0  0  0  0  0
    1.4790   14.3012   -6.0627 H   0  0  0  0  0  0  0  0  0  0  0  0
    0.2138   15.4529   -6.6095 H   0  0  0  0  0  0  0  0  0  0  0  0
    0.1971   14.8344   -4.9231 H   0  0  0  0  0  0  0  0  0  0  0  0
   -4.3503   15.0995  -10.6784 H   0  0  0  0  0  0  0  0  0  0  0  0
   -3.3270   12.3575  -10.1868 H   0  0  0  0  0  0  0  0  0  0  0  0
   -1.2811   13.3093  -11.4167 H   0  0  0  0  0  0  0  0  0  0  0  0
   -2.1756   14.8213  -11.7917 H   0  0  0  0  0  0  0  0  0  0  0  0
   -2.5050   15.2560   -9.2530 H   0  0  0  0  0  0  0  0  0  0  0  0
   -1.6106   13.7440   -8.8781 H   0  0  0  0  0  0  0  0  0  0  0  0
  1  2  1  0  0  0  0
  1  4  2  0  0  0  0
  1 11  1  0  0  0  0
  2  6  2  0  0  0  0
  3  4  1  0  0  0  0
  3  5  1  0  0  0  0
  5  6  1  0  0  0  0
  5  9  2  0  0  0  0
  6  7  1  0  0  0  0
  7  8  2  0  0  0  0
  7 10  1  0  0  0  0
  8  9  1  0  0  0  0
 10 12  2  0  0  0  0
 11 24  2  0  0  0  0
 11 25  2  0  0  0  0
 11 26  1  0  0  0  0
 12 13  1  0  0  0  0
 12 17  1  0  0  0  0
 13 14  2  0  0  0  0
 14 15  1  0  0  0  0
 15 16  1  0  0  0  0
 15 18  1  0  0  0  0
 16 17  2  0  0  0  0
 18 19  2  0  0  0  0
 18 22  1  0  0  0  0
 19 20  1  0  0  0  0
 20 21  1  0  0  0  0
 20 23  1  0  0  0  0
 21 22  2  0  0  0  0
 26 27  1  0  0  0  0
 27 28  1  0  0  0  0
 27 29  1  0  0  0  0
 28 29  1  0  0  0  0
  2 30  1  0  0  0  0
  3 31  1  0  0  0  0
  3 32  1  0  0  0  0
  4 33  1  0  0  0  0
 10 34  1  0  0  0  0
 13 35  1  0  0  0  0
 14 36  1  0  0  0  0
 15 37  1  0  0  0  0
 16 38  1  0  0  0  0
 17 39  1  0  0  0  0
 19 40  1  0  0  0  0
 22 41  1  0  0  0  0
 23 42  1  0  0  0  0
 23 43  1  0  0  0  0
 23 44  1  0  0  0  0
 26 45  1  0  0  0  0
 27 46  1  0  0  0  0
 28 47  1  0  0  0  0
 28 48  1  0  0  0  0
 29 49  1  0  0  0  0
 29 50  1  0  0  0  0
M  END
> <Name>
29

> <IC50[uM]>
0.18

$$$$
29
  -OEChem-05192314333D
 Structure written by MMmdl.
 50 54  0     1  0  0  0  0  0999 V2000
   -6.3727   12.3493  -11.9877 C   0  0  3  0  0  0  0  0  0  0  0  0
   -6.5190   11.8167  -10.7261 C   0  0  0  0  0  0  0  0  0  0  0  0
   -7.6919   10.5755  -13.0077 C   0  0  0  0  0  0  0  0  0  0  0  0
   -6.9476   11.7646  -13.1157 C   0  0  0  0  0  0  0  0  0  0  0  0
   -7.8131   10.0080  -11.7494 C   0  0  0  0  0  0  0  0  0  0  0  0
   -7.2399   10.6155  -10.5946 C   0  0  0  0  0  0  0  0  0  0  0  0
   -7.6088    9.7430   -9.5107 C   0  0  0  0  0  0  0  0  0  0  0  0
   -8.2764    8.7286   -9.9647 N   0  0  0  0  0  0  0  0  0  0  0  0
   -8.4188    8.8758  -11.2882 N   0  0  0  0  0  0  0  0  0  0  0  0
   -7.3326    9.8988   -8.0180 C   0  0  0  0  0  0  0  0  0  0  0  0
   -5.4060   13.8057  -12.2007 S   0  0  0  0  0  0  0  0  0  0  0  0
   -5.9763   10.4855   -7.7248 C   0  0  0  0  0  0  0  0  0  0  0  0
   -5.8692   11.7523   -7.1523 C   0  0  0  0  0  0  0  0  0  0  0  0
   -4.6115   12.3005   -6.8946 C   0  0  0  0  0  0  0  0  0  0  0  0
   -3.4415   11.5837   -7.2014 C   0  0  0  0  0  0  0  0  0  0  0  0
   -3.5677   10.3182   -7.7642 C   0  0  0  0  0  0  0  0  0  0  0  0
   -4.8209    9.7630   -8.0308 C   0  0  0  0  0  0  0  0  0  0  0  0
   -2.1027   12.1584   -6.9334 C   0  0  0  0  0  0  0  0  0  0  0  0
   -1.7604   13.4248   -6.4226 C   0  0  0  0  0  0  0  0  0  0  0  0
   -0.4260   13.4533   -6.3925 N   0  0  0  0  0  0  0  0  0  0  0  0
    0.1594   12.3444   -6.7934 N   0  0  0  0  0  0  0  0  0  0  0  0
   -0.8210   11.5507   -7.1379 C   0  0  0  0  0  0  0  0  0  0  0  0
    0.4194   14.5816   -5.9703 C   0  0  0  0  0  0  0  0  0  0  0  0
   -4.4605   13.4170  -13.2280 O   0  0  0  0  0  0  0  0  0  0  0  0
   -6.3362   14.9020  -12.4291 O   0  0  0  0  0  0  0  0  0  0  0  0
   -4.5495   14.1196  -10.6911 N   0  0  0  0  0  0  0  0  0  0  0  0
   -3.3000   13.4420  -10.3686 C   0  0  0  0  0  0  0  0  0  0  0  0
   -2.0717   13.9935  -11.0748 C   0  0  0  0  0  0  0  0  0  0  0  0
   -2.2627   14.2439   -9.6094 C   0  0  0  0  0  0  0  0  0  0  0  0
   -7.2734   12.9632  -11.8395 H   0  0  0  0  0  0  0  0  0  0  0  0
   -6.0929   12.3066   -9.8631 H   0  0  0  0  0  0  0  0  0  0  0  0
   -8.1517   10.1219  -13.8733 H   0  0  0  0  0  0  0  0  0  0  0  0
   -6.8202   12.2294  -14.0822 H   0  0  0  0  0  0  0  0  0  0  0  0
   -8.0377    9.6171   -7.2499 H   0  0  0  0  0  0  0  0  0  0  0  0
   -6.7609   12.3104   -6.9078 H   0  0  0  0  0  0  0  0  0  0  0  0
   -4.5365   13.2843   -6.4555 H   0  0  0  0  0  0  0  0  0  0  0  0
   -2.6780    9.7532   -7.9999 H   0  0  0  0  0  0  0  0  0  0  0  0
   -4.8773    8.8184   -7.4700 H   0  0  0  0  0  0  0  0  0  0  0  0
   -4.8532    9.5514   -9.1098 H   0  0  0  0  0  0  0  0  0  0  0  0
   -2.4366   14.2100   -6.1184 H   0  0  0  0  0  0  0  0  0  0  0  0
   -0.6813   10.5543   -7.5304 H   0  0  0  0  0  0  0  0  0  0  0  0
    1.4790   14.3012   -6.0627 H   0  0  0  0  0  0  0  0  0  0  0  0
    0.2138   15.4529   -6.6095 H   0  0  0  0  0  0  0  0  0  0  0  0
    0.1971   14.8344   -4.9231 H   0  0  0  0  0  0  0  0  0  0  0  0
   -4.3503   15.0995  -10.6784 H   0  0  0  0  0  0  0  0  0  0  0  0
   -3.3270   12.3575  -10.1868 H   0  0  0  0  0  0  0  0  0  0  0  0
   -1.2811   13.3093  -11.4167 H   0  0  0  0  0  0  0  0  0  0  0  0
   -2.1756   14.8213  -11.7917 H   0  0  0  0  0  0  0  0  0  0  0  0
   -2.5050   15.2560   -9.2530 H   0  0  0  0  0  0  0  0  0  0  0  0
   -1.6106   13.7440   -8.8781 H   0  0  0  0  0  0  0  0  0  0  0  0
  1  2  1  0  0  0  0
  1  4  1  0  0  0  0
  1 11  1  0  0  0  0
  2  6  2  0  0  0  0
  3  4  2  0  0  0  0
  3  5  1  0  0  0  0
  5  6  1  0  0  0  0
  5  9  2  0  0  0  0
  6  7  1  0  0  0  0
  7  8  2  0  0  0  0
  7 10  1  0  0  0  0
  8  9  1  0  0  0  0
 10 12  2  3  0  0  0
 11 24  2  0  0  0  0
 11 25  2  0  0  0  0
 11 26  1  0  0  0  0
 12 13  1  0  0  0  0
 12 17  1  0  0  0  0
 13 14  2  0  0  0  0
 14 15  1  0  0  0  0
 15 16  2  0  0  0  0
 15 18  1  0  0  0  0
 16 17  1  0  0  0  0
 18 19  2  0  0  0  0
 18 22  1  0  0  0  0
 19 20  1  0  0  0  0
 20 21  1  0  0  0  0
 20 23  1  0  0  0  0
 21 22  2  0  0  0  0
 26 27  1  0  0  0  0
 27 28  1  0  0  0  0
 27 29  1  0  0  0  0
 28 29  1  0  0  0  0
  1 30  1  0  0  0  0
  2 31  1  0  0  0  0
  3 32  1  0  0  0  0
  4 33  1  0  0  0  0
 10 34  1  0  0  0  0
 13 35  1  0  0  0  0
 14 36  1  0  0  0  0
 16 37  1  0  0  0  0
 17 38  1  0  0  0  0
 17 39  1  0  0  0  0
 19 40  1  0  0  0  0
 22 41  1  0  0  0  0
 23 42  1  0  0  0  0
 23 43  1  0  0  0  0
 23 44  1  0  0  0  0
 26 45  1  0  0  0  0
 27 46  1  0  0  0  0
 28 47  1  0  0  0  0
 28 48  1  0  0  0  0
 29 49  1  0  0  0  0
 29 50  1  0  0  0  0
M  END
> <Name>
29

> <IC50[uM]>
0.18

$$$$
29
  -OEChem-05192314333D
 Structure written by MMmdl.
 50 54  0     1  0  0  0  0  0999 V2000
   -6.3727   12.3493  -11.9877 C   0  0  0  0  0  0  0  0  0  0  0  0
   -6.5190   11.8167  -10.7261 C   0  0  0  0  0  0  0  0  0  0  0  0
   -7.6919   10.5755  -13.0077 C   0  0  0  0  0  0  0  0  0  0  0  0
   -6.9476   11.7646  -13.1157 C   0  0  0  0  0  0  0  0  0  0  0  0
   -7.8131   10.0080  -11.7494 C   0  0  0  0  0  0  0  0  0  0  0  0
   -7.2399   10.6155  -10.5946 C   0  0  3  0  0  0  0  0  0  0  0  0
   -7.6088    9.7430   -9.5107 C   0  0  0  0  0  0  0  0  0  0  0  0
   -8.2764    8.7286   -9.9647 N   0  0  0  0  0  0  0  0  0  0  0  0
   -8.4188    8.8758  -11.2882 N   0  0  0  0  0  0  0  0  0  0  0  0
   -7.3326    9.8988   -8.0180 C   0  0  0  0  0  0  0  0  0  0  0  0
   -5.4060   13.8057  -12.2007 S   0  0  0  0  0  0  0  0  0  0  0  0
   -5.9763   10.4855   -7.7248 C   0  0  0  0  0  0  0  0  0  0  0  0
   -5.8692   11.7523   -7.1523 C   0  0  0  0  0  0  0  0  0  0  0  0
   -4.6115   12.3005   -6.8946 C   0  0  0  0  0  0  0  0  0  0  0  0
   -3.4415   11.5837   -7.2014 C   0  0  0  0  0  0  0  0  0  0  0  0
   -3.5677   10.3182   -7.7642 C   0  0  0  0  0  0  0  0  0  0  0  0
   -4.8209    9.7630   -8.0308 C   0  0  0  0  0  0  0  0  0  0  0  0
   -2.1027   12.1584   -6.9334 C   0  0  0  0  0  0  0  0  0  0  0  0
   -1.7604   13.4248   -6.4226 C   0  0  0  0  0  0  0  0  0  0  0  0
   -0.4260   13.4533   -6.3925 N   0  0  0  0  0  0  0  0  0  0  0  0
    0.1594   12.3444   -6.7934 N   0  0  0  0  0  0  0  0  0  0  0  0
   -0.8210   11.5507   -7.1379 C   0  0  0  0  0  0  0  0  0  0  0  0
    0.4194   14.5816   -5.9703 C   0  0  0  0  0  0  0  0  0  0  0  0
   -4.4605   13.4170  -13.2280 O   0  0  0  0  0  0  0  0  0  0  0  0
   -6.3362   14.9020  -12.4291 O   0  0  0  0  0  0  0  0  0  0  0  0
   -4.5495   14.1196  -10.6911 N   0  0  0  0  0  0  0  0  0  0  0  0
   -3.3000   13.4420  -10.3686 C   0  0  0  0  0  0  0  0  0  0  0  0
   -2.0717   13.9935  -11.0748 C   0  0  0  0  0  0  0  0  0  0  0  0
   -2.2627   14.2439   -9.6094 C   0  0  0  0  0  0  0  0  0  0  0  0
   -6.0929   12.3066   -9.8631 H   0  0  0  0  0  0  0  0  0  0  0  0
   -8.1517   10.1219  -13.8733 H   0  0  0  0  0  0  0  0  0  0  0  0
   -6.8202   12.2294  -14.0822 H   0  0  0  0  0  0  0  0  0  0  0  0
   -6.3149   10.0400  -10.7471 H   0  0  0  0  0  0  0  0  0  0  0  0
   -8.0377    9.6171   -7.2499 H   0  0  0  0  0  0  0  0  0  0  0  0
   -6.7609   12.3104   -6.9078 H   0  0  0  0  0  0  0  0  0  0  0  0
   -4.5365   13.2843   -6.4555 H   0  0  0  0  0  0  0  0  0  0  0  0
   -2.6780    9.7532   -7.9999 H   0  0  0  0  0  0  0  0  0  0  0  0
   -4.8773    8.8184   -7.4700 H   0  0  0  0  0  0  0  0  0  0  0  0
   -4.8532    9.5514   -9.1098 H   0  0  0  0  0  0  0  0  0  0  0  0
   -2.4366   14.2100   -6.1184 H   0  0  0  0  0  0  0  0  0  0  0  0
   -0.6813   10.5543   -7.5304 H   0  0  0  0  0  0  0  0  0  0  0  0
    1.4790   14.3012   -6.0627 H   0  0  0  0  0  0  0  0  0  0  0  0
    0.2138   15.4529   -6.6095 H   0  0  0  0  0  0  0  0  0  0  0  0
    0.1971   14.8344   -4.9231 H   0  0  0  0  0  0  0  0  0  0  0  0
   -4.3503   15.0995  -10.6784 H   0  0  0  0  0  0  0  0  0  0  0  0
   -3.3270   12.3575  -10.1868 H   0  0  0  0  0  0  0  0  0  0  0  0
   -1.2811   13.3093  -11.4167 H   0  0  0  0  0  0  0  0  0  0  0  0
   -2.1756   14.8213  -11.7917 H   0  0  0  0  0  0  0  0  0  0  0  0
   -2.5050   15.2560   -9.2530 H   0  0  0  0  0  0  0  0  0  0  0  0
   -1.6106   13.7440   -8.8781 H   0  0  0  0  0  0  0  0  0  0  0  0
  1  2  2  0  0  0  0
  1  4  1  0  0  0  0
  1 11  1  0  0  0  0
  2  6  1  0  0  0  0
  3  4  2  0  0  0  0
  3  5  1  0  0  0  0
  5  6  1  0  0  0  0
  5  9  2  0  0  0  0
  6  7  1  0  0  0  0
  7  8  2  0  0  0  0
  7 10  1  0  0  0  0
  8  9  1  0  0  0  0
 10 12  2  3  0  0  0
 11 24  2  0  0  0  0
 11 25  2  0  0  0  0
 11 26  1  0  0  0  0
 12 13  1  0  0  0  0
 12 17  1  0  0  0  0
 13 14  2  0  0  0  0
 14 15  1  0  0  0  0
 15 16  2  0  0  0  0
 15 18  1  0  0  0  0
 16 17  1  0  0  0  0
 18 19  2  0  0  0  0
 18 22  1  0  0  0  0
 19 20  1  0  0  0  0
 20 21  1  0  0  0  0
 20 23  1  0  0  0  0
 21 22  2  0  0  0  0
 26 27  1  0  0  0  0
 27 28  1  0  0  0  0
 27 29  1  0  0  0  0
 28 29  1  0  0  0  0
  2 30  1  0  0  0  0
  3 31  1  0  0  0  0
  4 32  1  0  0  0  0
  6 33  1  0  0  0  0
 10 34  1  0  0  0  0
 13 35  1  0  0  0  0
 14 36  1  0  0  0  0
 16 37  1  0  0  0  0
 17 38  1  0  0  0  0
 17 39  1  0  0  0  0
 19 40  1  0  0  0  0
 22 41  1  0  0  0  0
 23 42  1  0  0  0  0
 23 43  1  0  0  0  0
 23 44  1  0  0  0  0
 26 45  1  0  0  0  0
 27 46  1  0  0  0  0
 28 47  1  0  0  0  0
 28 48  1  0  0  0  0
 29 49  1  0  0  0  0
 29 50  1  0  0  0  0
M  END
> <Name>
29

> <IC50[uM]>
0.18

$$$$
29
  -OEChem-05192314333D
 Structure written by MMmdl.
 50 54  0     0  0  0  0  0  0999 V2000
   -6.3727   12.3493  -11.9877 C   0  0  0  0  0  0  0  0  0  0  0  0
   -6.5190   11.8167  -10.7261 C   0  0  0  0  0  0  0  0  0  0  0  0
   -7.6919   10.5755  -13.0077 C   0  0  0  0  0  0  0  0  0  0  0  0
   -6.9476   11.7646  -13.1157 C   0  0  0  0  0  0  0  0  0  0  0  0
   -7.8131   10.0080  -11.7494 C   0  0  0  0  0  0  0  0  0  0  0  0
   -7.2399   10.6155  -10.5946 C   0  0  0  0  0  0  0  0  0  0  0  0
   -7.6088    9.7430   -9.5107 C   0  0  0  0  0  0  0  0  0  0  0  0
   -8.2764    8.7286   -9.9647 N   0  0  0  0  0  0  0  0  0  0  0  0
   -8.4188    8.8758  -11.2882 N   0  0  0  0  0  0  0  0  0  0  0  0
   -7.3326    9.8988   -8.0180 C   0  0  0  0  0  0  0  0  0  0  0  0
   -5.4060   13.8057  -12.2007 S   0  0  0  0  0  0  0  0  0  0  0  0
   -5.9763   10.4855   -7.7248 C   0  0  0  0  0  0  0  0  0  0  0  0
   -5.8692   11.7523   -7.1523 C   0  0  0  0  0  0  0  0  0  0  0  0
   -4.6115   12.3005   -6.8946 C   0  0  0  0  0  0  0  0  0  0  0  0
   -3.4415   11.5837   -7.2014 C   0  0  0  0  0  0  0  0  0  0  0  0
   -3.5677   10.3182   -7.7642 C   0  0  0  0  0  0  0  0  0  0  0  0
   -4.8209    9.7630   -8.0308 C   0  0  0  0  0  0  0  0  0  0  0  0
   -2.1027   12.1584   -6.9334 C   0  0  0  0  0  0  0  0  0  0  0  0
   -1.7604   13.4248   -6.4226 C   0  0  0  0  0  0  0  0  0  0  0  0
   -0.4260   13.4533   -6.3925 N   0  0  0  0  0  0  0  0  0  0  0  0
    0.1594   12.3444   -6.7934 N   0  0  0  0  0  0  0  0  0  0  0  0
   -0.8210   11.5507   -7.1379 C   0  0  0  0  0  0  0  0  0  0  0  0
    0.4194   14.5816   -5.9703 C   0  0  0  0  0  0  0  0  0  0  0  0
   -4.4605   13.4170  -13.2280 O   0  0  0  0  0  0  0  0  0  0  0  0
   -6.3362   14.9020  -12.4291 O   0  0  0  0  0  0  0  0  0  0  0  0
   -4.5495   14.1196  -10.6911 N   0  0  0  0  0  0  0  0  0  0  0  0
   -3.3000   13.4420  -10.3686 C   0  0  0  0  0  0  0  0  0  0  0  0
   -2.0717   13.9935  -11.0748 C   0  0  0  0  0  0  0  0  0  0  0  0
   -2.2627   14.2439   -9.6094 C   0  0  0  0  0  0  0  0  0  0  0  0
   -6.0929   12.3066   -9.8631 H   0  0  0  0  0  0  0  0  0  0  0  0
   -8.7077   10.7885  -13.3722 H   0  0  0  0  0  0  0  0  0  0  0  0
   -7.2168    9.8291  -13.6613 H   0  0  0  0  0  0  0  0  0  0  0  0
   -6.8202   12.2294  -14.0822 H   0  0  0  0  0  0  0  0  0  0  0  0
   -8.0377    9.6171   -7.2499 H   0  0  0  0  0  0  0  0  0  0  0  0
   -6.7609   12.3104   -6.9078 H   0  0  0  0  0  0  0  0  0  0  0  0
   -4.5365   13.2843   -6.4555 H   0  0  0  0  0  0  0  0  0  0  0  0
   -2.6780    9.7532   -7.9999 H   0  0  0  0  0  0  0  0  0  0  0  0
   -4.8773    8.8184   -7.4700 H   0  0  0  0  0  0  0  0  0  0  0  0
   -4.8532    9.5514   -9.1098 H   0  0  0  0  0  0  0  0  0  0  0  0
   -2.4366   14.2100   -6.1184 H   0  0  0  0  0  0  0  0  0  0  0  0
   -0.6813   10.5543   -7.5304 H   0  0  0  0  0  0  0  0  0  0  0  0
    1.4790   14.3012   -6.0627 H   0  0  0  0  0  0  0  0  0  0  0  0
    0.2138   15.4529   -6.6095 H   0  0  0  0  0  0  0  0  0  0  0  0
    0.1971   14.8344   -4.9231 H   0  0  0  0  0  0  0  0  0  0  0  0
   -4.3503   15.0995  -10.6784 H   0  0  0  0  0  0  0  0  0  0  0  0
   -3.3270   12.3575  -10.1868 H   0  0  0  0  0  0  0  0  0  0  0  0
   -1.2811   13.3093  -11.4167 H   0  0  0  0  0  0  0  0  0  0  0  0
   -2.1756   14.8213  -11.7917 H   0  0  0  0  0  0  0  0  0  0  0  0
   -2.5050   15.2560   -9.2530 H   0  0  0  0  0  0  0  0  0  0  0  0
   -1.6106   13.7440   -8.8781 H   0  0  0  0  0  0  0  0  0  0  0  0
  1  2  1  0  0  0  0
  1  4  2  0  0  0  0
  1 11  1  0  0  0  0
  2  6  2  0  0  0  0
  3  4  1  0  0  0  0
  3  5  1  0  0  0  0
  5  6  1  0  0  0  0
  5  9  2  0  0  0  0
  6  7  1  0  0  0  0
  7  8  2  0  0  0  0
  7 10  1  0  0  0  0
  8  9  1  0  0  0  0
 10 12  2  3  0  0  0
 11 24  2  0  0  0  0
 11 25  2  0  0  0  0
 11 26  1  0  0  0  0
 12 13  1  0  0  0  0
 12 17  1  0  0  0  0
 13 14  2  0  0  0  0
 14 15  1  0  0  0  0
 15 16  2  0  0  0  0
 15 18  1  0  0  0  0
 16 17  1  0  0  0  0
 18 19  2  0  0  0  0
 18 22  1  0  0  0  0
 19 20  1  0  0  0  0
 20 21  1  0  0  0  0
 20 23  1  0  0  0  0
 21 22  2  0  0  0  0
 26 27  1  0  0  0  0
 27 28  1  0  0  0  0
 27 29  1  0  0  0  0
 28 29  1  0  0  0  0
  2 30  1  0  0  0  0
  3 31  1  0  0  0  0
  3 32  1  0  0  0  0
  4 33  1  0  0  0  0
 10 34  1  0  0  0  0
 13 35  1  0  0  0  0
 14 36  1  0  0  0  0
 16 37  1  0  0  0  0
 17 38  1  0  0  0  0
 17 39  1  0  0  0  0
 19 40  1  0  0  0  0
 22 41  1  0  0  0  0
 23 42  1  0  0  0  0
 23 43  1  0  0  0  0
 23 44  1  0  0  0  0
 26 45  1  0  0  0  0
 27 46  1  0  0  0  0
 28 47  1  0  0  0  0
 28 48  1  0  0  0  0
 29 49  1  0  0  0  0
 29 50  1  0  0  0  0
M  END
> <Name>
29

> <IC50[uM]>
0.18

$$$$
29
  -OEChem-05192314333D
 Structure written by MMmdl.
 50 54  0     1  0  0  0  0  0999 V2000
   -6.3727   12.3493  -11.9877 C   0  0  0  0  0  0  0  0  0  0  0  0
   -6.5190   11.8167  -10.7261 C   0  0  0  0  0  0  0  0  0  0  0  0
   -7.6919   10.5755  -13.0077 C   0  0  0  0  0  0  0  0  0  0  0  0
   -6.9476   11.7646  -13.1157 C   0  0  0  0  0  0  0  0  0  0  0  0
   -7.8131   10.0080  -11.7494 C   0  0  3  0  0  0  0  0  0  0  0  0
   -7.2399   10.6155  -10.5946 C   0  0  0  0  0  0  0  0  0  0  0  0
   -7.6088    9.7430   -9.5107 C   0  0  0  0  0  0  0  0  0  0  0  0
   -8.2764    8.7286   -9.9647 N   0  0  0  0  0  0  0  0  0  0  0  0
   -8.4188    8.8758  -11.2882 N   0  0  0  0  0  0  0  0  0  0  0  0
   -7.3326    9.8988   -8.0180 C   0  0  0  0  0  0  0  0  0  0  0  0
   -5.4060   13.8057  -12.2007 S   0  0  0  0  0  0  0  0  0  0  0  0
   -5.9763   10.4855   -7.7248 C   0  0  0  0  0  0  0  0  0  0  0  0
   -5.8692   11.7523   -7.1523 C   0  0  0  0  0  0  0  0  0  0  0  0
   -4.6115   12.3005   -6.8946 C   0  0  0  0  0  0  0  0  0  0  0  0
   -3.4415   11.5837   -7.2014 C   0  0  0  0  0  0  0  0  0  0  0  0
   -3.5677   10.3182   -7.7642 C   0  0  0  0  0  0  0  0  0  0  0  0
   -4.8209    9.7630   -8.0308 C   0  0  0  0  0  0  0  0  0  0  0  0
   -2.1027   12.1584   -6.9334 C   0  0  0  0  0  0  0  0  0  0  0  0
   -1.7604   13.4248   -6.4226 C   0  0  0  0  0  0  0  0  0  0  0  0
   -0.4260   13.4533   -6.3925 N   0  0  0  0  0  0  0  0  0  0  0  0
    0.1594   12.3444   -6.7934 N   0  0  0  0  0  0  0  0  0  0  0  0
   -0.8210   11.5507   -7.1379 C   0  0  0  0  0  0  0  0  0  0  0  0
    0.4194   14.5816   -5.9703 C   0  0  0  0  0  0  0  0  0  0  0  0
   -4.4605   13.4170  -13.2280 O   0  0  0  0  0  0  0  0  0  0  0  0
   -6.3362   14.9020  -12.4291 O   0  0  0  0  0  0  0  0  0  0  0  0
   -4.5495   14.1196  -10.6911 N   0  0  0  0  0  0  0  0  0  0  0  0
   -3.3000   13.4420  -10.3686 C   0  0  0  0  0  0  0  0  0  0  0  0
   -2.0717   13.9935  -11.0748 C   0  0  0  0  0  0  0  0  0  0  0  0
   -2.2627   14.2439   -9.6094 C   0  0  0  0  0  0  0  0  0  0  0  0
   -6.0929   12.3066   -9.8631 H   0  0  0  0  0  0  0  0  0  0  0  0
   -8.1517   10.1219  -13.8733 H   0  0  0  0  0  0  0  0  0  0  0  0
   -6.8202   12.2294  -14.0822 H   0  0  0  0  0  0  0  0  0  0  0  0
   -6.8834    9.4437  -11.9142 H   0  0  0  0  0  0  0  0  0  0  0  0
   -8.0377    9.6171   -7.2499 H   0  0  0  0  0  0  0  0  0  0  0  0
   -6.7609   12.3104   -6.9078 H   0  0  0  0  0  0  0  0  0  0  0  0
   -4.5365   13.2843   -6.4555 H   0  0  0  0  0  0  0  0  0  0  0  0
   -3.4318   12.0299   -8.2068 H   0  0  0  0  0  0  0  0  0  0  0  0
   -2.6780    9.7532   -7.9999 H   0  0  0  0  0  0  0  0  0  0  0  0
   -4.8963    8.7799   -8.4714 H   0  0  0  0  0  0  0  0  0  0  0  0
   -2.4366   14.2100   -6.1184 H   0  0  0  0  0  0  0  0  0  0  0  0
   -0.6813   10.5543   -7.5304 H   0  0  0  0  0  0  0  0  0  0  0  0
    1.4790   14.3012   -6.0627 H   0  0  0  0  0  0  0  0  0  0  0  0
    0.2138   15.4529   -6.6095 H   0  0  0  0  0  0  0  0  0  0  0  0
    0.1971   14.8344   -4.9231 H   0  0  0  0  0  0  0  0  0  0  0  0
   -4.3503   15.0995  -10.6784 H   0  0  0  0  0  0  0  0  0  0  0  0
   -3.3270   12.3575  -10.1868 H   0  0  0  0  0  0  0  0  0  0  0  0
   -1.2811   13.3093  -11.4167 H   0  0  0  0  0  0  0  0  0  0  0  0
   -2.1756   14.8213  -11.7917 H   0  0  0  0  0  0  0  0  0  0  0  0
   -2.5050   15.2560   -9.2530 H   0  0  0  0  0  0  0  0  0  0  0  0
   -1.6106   13.7440   -8.8781 H   0  0  0  0  0  0  0  0  0  0  0  0
  1  2  2  0  0  0  0
  1  4  1  0  0  0  0
  1 11  1  0  0  0  0
  2  6  1  0  0  0  0
  3  4  2  0  0  0  0
  3  5  1  0  0  0  0
  5  6  1  0  0  0  0
  5  9  1  0  0  0  0
  6  7  2  0  0  0  0
  7  8  1  0  0  0  0
  7 10  1  0  0  0  0
  8  9  2  0  0  0  0
 10 12  2  0  0  0  0
 11 24  2  0  0  0  0
 11 25  2  0  0  0  0
 11 26  1  0  0  0  0
 12 13  1  0  0  0  0
 12 17  1  0  0  0  0
 13 14  2  0  0  0  0
 14 15  1  0  0  0  0
 15 16  1  0  0  0  0
 15 18  1  0  0  0  0
 16 17  2  0  0  0  0
 18 19  2  0  0  0  0
 18 22  1  0  0  0  0
 19 20  1  0  0  0  0
 20 21  1  0  0  0  0
 20 23  1  0  0  0  0
 21 22  2  0  0  0  0
 26 27  1  0  0  0  0
 27 28  1  0  0  0  0
 27 29  1  0  0  0  0
 28 29  1  0  0  0  0
  2 30  1  0  0  0  0
  3 31  1  0  0  0  0
  4 32  1  0  0  0  0
  5 33  1  0  0  0  0
 10 34  1  0  0  0  0
 13 35  1  0  0  0  0
 14 36  1  0  0  0  0
 15 37  1  0  0  0  0
 16 38  1  0  0  0  0
 17 39  1  0  0  0  0
 19 40  1  0  0  0  0
 22 41  1  0  0  0  0
 23 42  1  0  0  0  0
 23 43  1  0  0  0  0
 23 44  1  0  0  0  0
 26 45  1  0  0  0  0
 27 46  1  0  0  0  0
 28 47  1  0  0  0  0
 28 48  1  0  0  0  0
 29 49  1  0  0  0  0
 29 50  1  0  0  0  0
M  END
> <Name>
29

> <IC50[uM]>
0.18

$$$$
29
  -OEChem-05192314333D
 Structure written by MMmdl.
 50 54  0     1  0  0  0  0  0999 V2000
   -6.3727   12.3493  -11.9877 C   0  0  0  0  0  0  0  0  0  0  0  0
   -6.5190   11.8167  -10.7261 C   0  0  0  0  0  0  0  0  0  0  0  0
   -7.6919   10.5755  -13.0077 C   0  0  0  0  0  0  0  0  0  0  0  0
   -6.9476   11.7646  -13.1157 C   0  0  0  0  0  0  0  0  0  0  0  0
   -7.8131   10.0080  -11.7494 C   0  0  3  0  0  0  0  0  0  0  0  0
   -7.2399   10.6155  -10.5946 C   0  0  0  0  0  0  0  0  0  0  0  0
   -7.6088    9.7430   -9.5107 C   0  0  0  0  0  0  0  0  0  0  0  0
   -8.2764    8.7286   -9.9647 N   0  0  0  0  0  0  0  0  0  0  0  0
   -8.4188    8.8758  -11.2882 N   0  0  0  0  0  0  0  0  0  0  0  0
   -7.3326    9.8988   -8.0180 C   0  0  0  0  0  0  0  0  0  0  0  0
   -5.4060   13.8057  -12.2007 S   0  0  0  0  0  0  0  0  0  0  0  0
   -5.9763   10.4855   -7.7248 C   0  0  0  0  0  0  0  0  0  0  0  0
   -5.8692   11.7523   -7.1523 C   0  0  0  0  0  0  0  0  0  0  0  0
   -4.6115   12.3005   -6.8946 C   0  0  0  0  0  0  0  0  0  0  0  0
   -3.4415   11.5837   -7.2014 C   0  0  0  0  0  0  0  0  0  0  0  0
   -3.5677   10.3182   -7.7642 C   0  0  0  0  0  0  0  0  0  0  0  0
   -4.8209    9.7630   -8.0308 C   0  0  0  0  0  0  0  0  0  0  0  0
   -2.1027   12.1584   -6.9334 C   0  0  0  0  0  0  0  0  0  0  0  0
   -1.7604   13.4248   -6.4226 C   0  0  0  0  0  0  0  0  0  0  0  0
   -0.4260   13.4533   -6.3925 N   0  0  0  0  0  0  0  0  0  0  0  0
    0.1594   12.3444   -6.7934 N   0  0  0  0  0  0  0  0  0  0  0  0
   -0.8210   11.5507   -7.1379 C   0  0  0  0  0  0  0  0  0  0  0  0
    0.4194   14.5816   -5.9703 C   0  0  0  0  0  0  0  0  0  0  0  0
   -4.4605   13.4170  -13.2280 O   0  0  0  0  0  0  0  0  0  0  0  0
   -6.3362   14.9020  -12.4291 O   0  0  0  0  0  0  0  0  0  0  0  0
   -4.5495   14.1196  -10.6911 N   0  0  0  0  0  0  0  0  0  0  0  0
   -3.3000   13.4420  -10.3686 C   0  0  0  0  0  0  0  0  0  0  0  0
   -2.0717   13.9935  -11.0748 C   0  0  0  0  0  0  0  0  0  0  0  0
   -2.2627   14.2439   -9.6094 C   0  0  0  0  0  0  0  0  0  0  0  0
   -6.0929   12.3066   -9.8631 H   0  0  0  0  0  0  0  0  0  0  0  0
   -8.1517   10.1219  -13.8733 H   0  0  0  0  0  0  0  0  0  0  0  0
   -6.8202   12.2294  -14.0822 H   0  0  0  0  0  0  0  0  0  0  0  0
   -6.8834    9.4437  -11.9142 H   0  0  0  0  0  0  0  0  0  0  0  0
   -8.0377    9.6171   -7.2499 H   0  0  0  0  0  0  0  0  0  0  0  0
   -6.7609   12.3104   -6.9078 H   0  0  0  0  0  0  0  0  0  0  0  0
   -4.5365   13.2843   -6.4555 H   0  0  0  0  0  0  0  0  0  0  0  0
   -2.6780    9.7532   -7.9999 H   0  0  0  0  0  0  0  0  0  0  0  0
   -4.8773    8.8184   -7.4700 H   0  0  0  0  0  0  0  0  0  0  0  0
   -4.8532    9.5514   -9.1098 H   0  0  0  0  0  0  0  0  0  0  0  0
   -2.4366   14.2100   -6.1184 H   0  0  0  0  0  0  0  0  0  0  0  0
   -0.6813   10.5543   -7.5304 H   0  0  0  0  0  0  0  0  0  0  0  0
    1.4790   14.3012   -6.0627 H   0  0  0  0  0  0  0  0  0  0  0  0
    0.2138   15.4529   -6.6095 H   0  0  0  0  0  0  0  0  0  0  0  0
    0.1971   14.8344   -4.9231 H   0  0  0  0  0  0  0  0  0  0  0  0
   -4.3503   15.0995  -10.6784 H   0  0  0  0  0  0  0  0  0  0  0  0
   -3.3270   12.3575  -10.1868 H   0  0  0  0  0  0  0  0  0  0  0  0
   -1.2811   13.3093  -11.4167 H   0  0  0  0  0  0  0  0  0  0  0  0
   -2.1756   14.8213  -11.7917 H   0  0  0  0  0  0  0  0  0  0  0  0
   -2.5050   15.2560   -9.2530 H   0  0  0  0  0  0  0  0  0  0  0  0
   -1.6106   13.7440   -8.8781 H   0  0  0  0  0  0  0  0  0  0  0  0
  1  2  2  0  0  0  0
  1  4  1  0  0  0  0
  1 11  1  0  0  0  0
  2  6  1  0  0  0  0
  3  4  2  0  0  0  0
  3  5  1  0  0  0  0
  5  6  1  0  0  0  0
  5  9  1  0  0  0  0
  6  7  2  0  0  0  0
  7  8  1  0  0  0  0
  7 10  1  0  0  0  0
  8  9  2  0  0  0  0
 10 12  2  3  0  0  0
 11 24  2  0  0  0  0
 11 25  2  0  0  0  0
 11 26  1  0  0  0  0
 12 13  1  0  0  0  0
 12 17  1  0  0  0  0
 13 14  2  0  0  0  0
 14 15  1  0  0  0  0
 15 16  2  0  0  0  0
 15 18  1  0  0  0  0
 16 17  1  0  0  0  0
 18 19  2  0  0  0  0
 18 22  1  0  0  0  0
 19 20  1  0  0  0  0
 20 21  1  0  0  0  0
 20 23  1  0  0  0  0
 21 22  2  0  0  0  0
 26 27  1  0  0  0  0
 27 28  1  0  0  0  0
 27 29  1  0  0  0  0
 28 29  1  0  0  0  0
  2 30  1  0  0  0  0
  3 31  1  0  0  0  0
  4 32  1  0  0  0  0
  5 33  1  0  0  0  0
 10 34  1  0  0  0  0
 13 35  1  0  0  0  0
 14 36  1  0  0  0  0
 16 37  1  0  0  0  0
 17 38  1  0  0  0  0
 17 39  1  0  0  0  0
 19 40  1  0  0  0  0
 22 41  1  0  0  0  0
 23 42  1  0  0  0  0
 23 43  1  0  0  0  0
 23 44  1  0  0  0  0
 26 45  1  0  0  0  0
 27 46  1  0  0  0  0
 28 47  1  0  0  0  0
 28 48  1  0  0  0  0
 29 49  1  0  0  0  0
 29 50  1  0  0  0  0
M  END
> <Name>
29

> <IC50[uM]>
0.18

$$$$
29
  -OEChem-05192314333D
 Structure written by MMmdl.
 50 54  0     0  0  0  0  0  0999 V2000
   -6.3727   12.3493  -11.9877 C   0  0  0  0  0  0  0  0  0  0  0  0
   -6.5190   11.8167  -10.7261 C   0  0  0  0  0  0  0  0  0  0  0  0
   -7.6919   10.5755  -13.0077 C   0  0  0  0  0  0  0  0  0  0  0  0
   -6.9476   11.7646  -13.1157 C   0  0  0  0  0  0  0  0  0  0  0  0
   -7.8131   10.0080  -11.7494 C   0  0  0  0  0  0  0  0  0  0  0  0
   -7.2399   10.6155  -10.5946 C   0  0  0  0  0  0  0  0  0  0  0  0
   -7.6088    9.7430   -9.5107 C   0  0  0  0  0  0  0  0  0  0  0  0
   -8.2764    8.7286   -9.9647 N   0  0  0  0  0  0  0  0  0  0  0  0
   -8.4188    8.8758  -11.2882 N   0  0  0  0  0  0  0  0  0  0  0  0
   -7.3326    9.8988   -8.0180 C   0  0  0  0  0  0  0  0  0  0  0  0
   -5.4060   13.8057  -12.2007 S   0  0  0  0  0  0  0  0  0  0  0  0
   -5.9763   10.4855   -7.7248 C   0  0  0  0  0  0  0  0  0  0  0  0
   -5.8692   11.7523   -7.1523 C   0  0  0  0  0  0  0  0  0  0  0  0
   -4.6115   12.3005   -6.8946 C   0  0  0  0  0  0  0  0  0  0  0  0
   -3.4415   11.5837   -7.2014 C   0  0  0  0  0  0  0  0  0  0  0  0
   -3.5677   10.3182   -7.7642 C   0  0  0  0  0  0  0  0  0  0  0  0
   -4.8209    9.7630   -8.0308 C   0  0  0  0  0  0  0  0  0  0  0  0
   -2.1027   12.1584   -6.9334 C   0  0  0  0  0  0  0  0  0  0  0  0
   -1.7604   13.4248   -6.4226 C   0  0  0  0  0  0  0  0  0  0  0  0
   -0.4260   13.4533   -6.3925 N   0  0  0  0  0  0  0  0  0  0  0  0
    0.1594   12.3444   -6.7934 N   0  0  0  0  0  0  0  0  0  0  0  0
   -0.8210   11.5507   -7.1379 C   0  0  0  0  0  0  0  0  0  0  0  0
    0.4194   14.5816   -5.9703 C   0  0  0  0  0  0  0  0  0  0  0  0
   -4.4605   13.4170  -13.2280 O   0  0  0  0  0  0  0  0  0  0  0  0
   -6.3362   14.9020  -12.4291 O   0  0  0  0  0  0  0  0  0  0  0  0
   -4.5495   14.1196  -10.6911 N   0  0  0  0  0  0  0  0  0  0  0  0
   -3.3000   13.4420  -10.3686 C   0  0  0  0  0  0  0  0  0  0  0  0
   -2.0717   13.9935  -11.0748 C   0  0  0  0  0  0  0  0  0  0  0  0
   -2.2627   14.2439   -9.6094 C   0  0  0  0  0  0  0  0  0  0  0  0
   -6.0929   12.3066   -9.8631 H   0  0  0  0  0  0  0  0  0  0  0  0
   -8.1517   10.1219  -13.8733 H   0  0  0  0  0  0  0  0  0  0  0  0
   -7.6202   12.5178  -13.5518 H   0  0  0  0  0  0  0  0  0  0  0  0
   -6.1251   11.5580  -13.8163 H   0  0  0  0  0  0  0  0  0  0  0  0
   -8.0377    9.6171   -7.2499 H   0  0  0  0  0  0  0  0  0  0  0  0
   -6.7609   12.3104   -6.9078 H   0  0  0  0  0  0  0  0  0  0  0  0
   -4.5365   13.2843   -6.4555 H   0  0  0  0  0  0  0  0  0  0  0  0
   -3.4318   12.0299   -8.2068 H   0  0  0  0  0  0  0  0  0  0  0  0
   -2.6780    9.7532   -7.9999 H   0  0  0  0  0  0  0  0  0  0  0  0
   -4.8963    8.7799   -8.4714 H   0  0  0  0  0  0  0  0  0  0  0  0
   -2.4366   14.2100   -6.1184 H   0  0  0  0  0  0  0  0  0  0  0  0
   -0.6813   10.5543   -7.5304 H   0  0  0  0  0  0  0  0  0  0  0  0
    1.4790   14.3012   -6.0627 H   0  0  0  0  0  0  0  0  0  0  0  0
    0.2138   15.4529   -6.6095 H   0  0  0  0  0  0  0  0  0  0  0  0
    0.1971   14.8344   -4.9231 H   0  0  0  0  0  0  0  0  0  0  0  0
   -4.3503   15.0995  -10.6784 H   0  0  0  0  0  0  0  0  0  0  0  0
   -3.3270   12.3575  -10.1868 H   0  0  0  0  0  0  0  0  0  0  0  0
   -1.2811   13.3093  -11.4167 H   0  0  0  0  0  0  0  0  0  0  0  0
   -2.1756   14.8213  -11.7917 H   0  0  0  0  0  0  0  0  0  0  0  0
   -2.5050   15.2560   -9.2530 H   0  0  0  0  0  0  0  0  0  0  0  0
   -1.6106   13.7440   -8.8781 H   0  0  0  0  0  0  0  0  0  0  0  0
  1  2  2  0  0  0  0
  1  4  1  0  0  0  0
  1 11  1  0  0  0  0
  2  6  1  0  0  0  0
  3  4  1  0  0  0  0
  3  5  2  0  0  0  0
  5  6  1  0  0  0  0
  5  9  1  0  0  0  0
  6  7  2  0  0  0  0
  7  8  1  0  0  0  0
  7 10  1  0  0  0  0
  8  9  2  0  0  0  0
 10 12  2  0  0  0  0
 11 24  2  0  0  0  0
 11 25  2  0  0  0  0
 11 26  1  0  0  0  0
 12 13  1  0  0  0  0
 12 17  1  0  0  0  0
 13 14  2  0  0  0  0
 14 15  1  0  0  0  0
 15 16  1  0  0  0  0
 15 18  1  0  0  0  0
 16 17  2  0  0  0  0
 18 19  2  0  0  0  0
 18 22  1  0  0  0  0
 19 20  1  0  0  0  0
 20 21  1  0  0  0  0
 20 23  1  0  0  0  0
 21 22  2  0  0  0  0
 26 27  1  0  0  0  0
 27 28  1  0  0  0  0
 27 29  1  0  0  0  0
 28 29  1  0  0  0  0
  2 30  1  0  0  0  0
  3 31  1  0  0  0  0
  4 32  1  0  0  0  0
  4 33  1  0  0  0  0
 10 34  1  0  0  0  0
 13 35  1  0  0  0  0
 14 36  1  0  0  0  0
 15 37  1  0  0  0  0
 16 38  1  0  0  0  0
 17 39  1  0  0  0  0
 19 40  1  0  0  0  0
 22 41  1  0  0  0  0
 23 42  1  0  0  0  0
 23 43  1  0  0  0  0
 23 44  1  0  0  0  0
 26 45  1  0  0  0  0
 27 46  1  0  0  0  0
 28 47  1  0  0  0  0
 28 48  1  0  0  0  0
 29 49  1  0  0  0  0
 29 50  1  0  0  0  0
M  END
> <Name>
29

> <IC50[uM]>
0.18

$$$$
29
  -OEChem-05192314333D
 Structure written by MMmdl.
 50 54  0     0  0  0  0  0  0999 V2000
   -6.3727   12.3493  -11.9877 C   0  0  0  0  0  0  0  0  0  0  0  0
   -6.5190   11.8167  -10.7261 C   0  0  0  0  0  0  0  0  0  0  0  0
   -7.6919   10.5755  -13.0077 C   0  0  0  0  0  0  0  0  0  0  0  0
   -6.9476   11.7646  -13.1157 C   0  0  0  0  0  0  0  0  0  0  0  0
   -7.8131   10.0080  -11.7494 C   0  0  0  0  0  0  0  0  0  0  0  0
   -7.2399   10.6155  -10.5946 C   0  0  0  0  0  0  0  0  0  0  0  0
   -7.6088    9.7430   -9.5107 C   0  0  0  0  0  0  0  0  0  0  0  0
   -8.2764    8.7286   -9.9647 N   0  0  0  0  0  0  0  0  0  0  0  0
   -8.4188    8.8758  -11.2882 N   0  0  0  0  0  0  0  0  0  0  0  0
   -7.3326    9.8988   -8.0180 C   0  0  0  0  0  0  0  0  0  0  0  0
   -5.4060   13.8057  -12.2007 S   0  0  0  0  0  0  0  0  0  0  0  0
   -5.9763   10.4855   -7.7248 C   0  0  0  0  0  0  0  0  0  0  0  0
   -5.8692   11.7523   -7.1523 C   0  0  0  0  0  0  0  0  0  0  0  0
   -4.6115   12.3005   -6.8946 C   0  0  0  0  0  0  0  0  0  0  0  0
   -3.4415   11.5837   -7.2014 C   0  0  0  0  0  0  0  0  0  0  0  0
   -3.5677   10.3182   -7.7642 C   0  0  0  0  0  0  0  0  0  0  0  0
   -4.8209    9.7630   -8.0308 C   0  0  0  0  0  0  0  0  0  0  0  0
   -2.1027   12.1584   -6.9334 C   0  0  0  0  0  0  0  0  0  0  0  0
   -1.7604   13.4248   -6.4226 C   0  0  0  0  0  0  0  0  0  0  0  0
   -0.4260   13.4533   -6.3925 N   0  0  0  0  0  0  0  0  0  0  0  0
    0.1594   12.3444   -6.7934 N   0  0  0  0  0  0  0  0  0  0  0  0
   -0.8210   11.5507   -7.1379 C   0  0  0  0  0  0  0  0  0  0  0  0
    0.4194   14.5816   -5.9703 C   0  0  0  0  0  0  0  0  0  0  0  0
   -4.4605   13.4170  -13.2280 O   0  0  0  0  0  0  0  0  0  0  0  0
   -6.3362   14.9020  -12.4291 O   0  0  0  0  0  0  0  0  0  0  0  0
   -4.5495   14.1196  -10.6911 N   0  0  0  0  0  0  0  0  0  0  0  0
   -3.3000   13.4420  -10.3686 C   0  0  0  0  0  0  0  0  0  0  0  0
   -2.0717   13.9935  -11.0748 C   0  0  0  0  0  0  0  0  0  0  0  0
   -2.2627   14.2439   -9.6094 C   0  0  0  0  0  0  0  0  0  0  0  0
   -6.0929   12.3066   -9.8631 H   0  0  0  0  0  0  0  0  0  0  0  0
   -8.1517   10.1219  -13.8733 H   0  0  0  0  0  0  0  0  0  0  0  0
   -7.6202   12.5178  -13.5518 H   0  0  0  0  0  0  0  0  0  0  0  0
   -6.1251   11.5580  -13.8163 H   0  0  0  0  0  0  0  0  0  0  0  0
   -8.0377    9.6171   -7.2499 H   0  0  0  0  0  0  0  0  0  0  0  0
   -6.7609   12.3104   -6.9078 H   0  0  0  0  0  0  0  0  0  0  0  0
   -4.5365   13.2843   -6.4555 H   0  0  0  0  0  0  0  0  0  0  0  0
   -2.6780    9.7532   -7.9999 H   0  0  0  0  0  0  0  0  0  0  0  0
   -4.8773    8.8184   -7.4700 H   0  0  0  0  0  0  0  0  0  0  0  0
   -4.8532    9.5514   -9.1098 H   0  0  0  0  0  0  0  0  0  0  0  0
   -2.4366   14.2100   -6.1184 H   0  0  0  0  0  0  0  0  0  0  0  0
   -0.6813   10.5543   -7.5304 H   0  0  0  0  0  0  0  0  0  0  0  0
    1.4790   14.3012   -6.0627 H   0  0  0  0  0  0  0  0  0  0  0  0
    0.2138   15.4529   -6.6095 H   0  0  0  0  0  0  0  0  0  0  0  0
    0.1971   14.8344   -4.9231 H   0  0  0  0  0  0  0  0  0  0  0  0
   -4.3503   15.0995  -10.6784 H   0  0  0  0  0  0  0  0  0  0  0  0
   -3.3270   12.3575  -10.1868 H   0  0  0  0  0  0  0  0  0  0  0  0
   -1.2811   13.3093  -11.4167 H   0  0  0  0  0  0  0  0  0  0  0  0
   -2.1756   14.8213  -11.7917 H   0  0  0  0  0  0  0  0  0  0  0  0
   -2.5050   15.2560   -9.2530 H   0  0  0  0  0  0  0  0  0  0  0  0
   -1.6106   13.7440   -8.8781 H   0  0  0  0  0  0  0  0  0  0  0  0
  1  2  2  0  0  0  0
  1  4  1  0  0  0  0
  1 11  1  0  0  0  0
  2  6  1  0  0  0  0
  3  4  1  0  0  0  0
  3  5  2  0  0  0  0
  5  6  1  0  0  0  0
  5  9  1  0  0  0  0
  6  7  2  0  0  0  0
  7  8  1  0  0  0  0
  7 10  1  0  0  0  0
  8  9  2  0  0  0  0
 10 12  2  3  0  0  0
 11 24  2  0  0  0  0
 11 25  2  0  0  0  0
 11 26  1  0  0  0  0
 12 13  1  0  0  0  0
 12 17  1  0  0  0  0
 13 14  2  0  0  0  0
 14 15  1  0  0  0  0
 15 16  2  0  0  0  0
 15 18  1  0  0  0  0
 16 17  1  0  0  0  0
 18 19  2  0  0  0  0
 18 22  1  0  0  0  0
 19 20  1  0  0  0  0
 20 21  1  0  0  0  0
 20 23  1  0  0  0  0
 21 22  2  0  0  0  0
 26 27  1  0  0  0  0
 27 28  1  0  0  0  0
 27 29  1  0  0  0  0
 28 29  1  0  0  0  0
  2 30  1  0  0  0  0
  3 31  1  0  0  0  0
  4 32  1  0  0  0  0
  4 33  1  0  0  0  0
 10 34  1  0  0  0  0
 13 35  1  0  0  0  0
 14 36  1  0  0  0  0
 16 37  1  0  0  0  0
 17 38  1  0  0  0  0
 17 39  1  0  0  0  0
 19 40  1  0  0  0  0
 22 41  1  0  0  0  0
 23 42  1  0  0  0  0
 23 43  1  0  0  0  0
 23 44  1  0  0  0  0
 26 45  1  0  0  0  0
 27 46  1  0  0  0  0
 28 47  1  0  0  0  0
 28 48  1  0  0  0  0
 29 49  1  0  0  0  0
 29 50  1  0  0  0  0
M  END
> <Name>
29

> <IC50[uM]>
0.18

$$$$
29
  -OEChem-05192314333D
 Structure written by MMmdl.
 50 54  0     0  0  0  0  0  0999 V2000
   -6.3727   12.3493  -11.9877 C   0  0  0  0  0  0  0  0  0  0  0  0
   -6.5190   11.8167  -10.7261 C   0  0  0  0  0  0  0  0  0  0  0  0
   -7.6919   10.5755  -13.0077 C   0  0  0  0  0  0  0  0  0  0  0  0
   -6.9476   11.7646  -13.1157 C   0  0  0  0  0  0  0  0  0  0  0  0
   -7.8131   10.0080  -11.7494 C   0  0  0  0  0  0  0  0  0  0  0  0
   -7.2399   10.6155  -10.5946 C   0  0  0  0  0  0  0  0  0  0  0  0
   -7.6088    9.7430   -9.5107 C   0  0  0  0  0  0  0  0  0  0  0  0
   -8.2764    8.7286   -9.9647 N   0  0  0  0  0  0  0  0  0  0  0  0
   -8.4188    8.8758  -11.2882 N   0  0  0  0  0  0  0  0  0  0  0  0
   -7.3326    9.8988   -8.0180 C   0  0  0  0  0  0  0  0  0  0  0  0
   -5.4060   13.8057  -12.2007 S   0  0  0  0  0  0  0  0  0  0  0  0
   -5.9763   10.4855   -7.7248 C   0  0  0  0  0  0  0  0  0  0  0  0
   -5.8692   11.7523   -7.1523 C   0  0  0  0  0  0  0  0  0  0  0  0
   -4.6115   12.3005   -6.8946 C   0  0  0  0  0  0  0  0  0  0  0  0
   -3.4415   11.5837   -7.2014 C   0  0  0  0  0  0  0  0  0  0  0  0
   -3.5677   10.3182   -7.7642 C   0  0  0  0  0  0  0  0  0  0  0  0
   -4.8209    9.7630   -8.0308 C   0  0  0  0  0  0  0  0  0  0  0  0
   -2.1027   12.1584   -6.9334 C   0  0  0  0  0  0  0  0  0  0  0  0
   -1.7604   13.4248   -6.4226 C   0  0  0  0  0  0  0  0  0  0  0  0
   -0.4260   13.4533   -6.3925 N   0  0  0  0  0  0  0  0  0  0  0  0
    0.1594   12.3444   -6.7934 N   0  0  0  0  0  0  0  0  0  0  0  0
   -0.8210   11.5507   -7.1379 C   0  0  0  0  0  0  0  0  0  0  0  0
    0.4194   14.5816   -5.9703 C   0  0  0  0  0  0  0  0  0  0  0  0
   -4.4605   13.4170  -13.2280 O   0  0  0  0  0  0  0  0  0  0  0  0
   -6.3362   14.9020  -12.4291 O   0  0  0  0  0  0  0  0  0  0  0  0
   -4.5495   14.1196  -10.6911 N   0  0  0  0  0  0  0  0  0  0  0  0
   -3.3000   13.4420  -10.3686 C   0  0  0  0  0  0  0  0  0  0  0  0
   -2.0717   13.9935  -11.0748 C   0  0  0  0  0  0  0  0  0  0  0  0
   -2.2627   14.2439   -9.6094 C   0  0  0  0  0  0  0  0  0  0  0  0
   -5.5094   11.6373  -10.3279 H   0  0  0  0  0  0  0  0  0  0  0  0
   -7.0275   12.5723  -10.1093 H   0  0  0  0  0  0  0  0  0  0  0  0
   -8.1517   10.1219  -13.8733 H   0  0  0  0  0  0  0  0  0  0  0  0
   -6.8202   12.2294  -14.0822 H   0  0  0  0  0  0  0  0  0  0  0  0
   -8.0377    9.6171   -7.2499 H   0  0  0  0  0  0  0  0  0  0  0  0
   -6.7609   12.3104   -6.9078 H   0  0  0  0  0  0  0  0  0  0  0  0
   -4.5365   13.2843   -6.4555 H   0  0  0  0  0  0  0  0  0  0  0  0
   -3.4318   12.0299   -8.2068 H   0  0  0  0  0  0  0  0  0  0  0  0
   -2.6780    9.7532   -7.9999 H   0  0  0  0  0  0  0  0  0  0  0  0
   -4.8963    8.7799   -8.4714 H   0  0  0  0  0  0  0  0  0  0  0  0
   -2.4366   14.2100   -6.1184 H   0  0  0  0  0  0  0  0  0  0  0  0
   -0.6813   10.5543   -7.5304 H   0  0  0  0  0  0  0  0  0  0  0  0
    1.4790   14.3012   -6.0627 H   0  0  0  0  0  0  0  0  0  0  0  0
    0.2138   15.4529   -6.6095 H   0  0  0  0  0  0  0  0  0  0  0  0
    0.1971   14.8344   -4.9231 H   0  0  0  0  0  0  0  0  0  0  0  0
   -4.3503   15.0995  -10.6784 H   0  0  0  0  0  0  0  0  0  0  0  0
   -3.3270   12.3575  -10.1868 H   0  0  0  0  0  0  0  0  0  0  0  0
   -1.2811   13.3093  -11.4167 H   0  0  0  0  0  0  0  0  0  0  0  0
   -2.1756   14.8213  -11.7917 H   0  0  0  0  0  0  0  0  0  0  0  0
   -2.5050   15.2560   -9.2530 H   0  0  0  0  0  0  0  0  0  0  0  0
   -1.6106   13.7440   -8.8781 H   0  0  0  0  0  0  0  0  0  0  0  0
  1  2  1  0  0  0  0
  1  4  2  0  0  0  0
  1 11  1  0  0  0  0
  2  6  1  0  0  0  0
  3  4  1  0  0  0  0
  3  5  2  0  0  0  0
  5  6  1  0  0  0  0
  5  9  1  0  0  0  0
  6  7  2  0  0  0  0
  7  8  1  0  0  0  0
  7 10  1  0  0  0  0
  8  9  2  0  0  0  0
 10 12  2  0  0  0  0
 11 24  2  0  0  0  0
 11 25  2  0  0  0  0
 11 26  1  0  0  0  0
 12 13  1  0  0  0  0
 12 17  1  0  0  0  0
 13 14  2  0  0  0  0
 14 15  1  0  0  0  0
 15 16  1  0  0  0  0
 15 18  1  0  0  0  0
 16 17  2  0  0  0  0
 18 19  2  0  0  0  0
 18 22  1  0  0  0  0
 19 20  1  0  0  0  0
 20 21  1  0  0  0  0
 20 23  1  0  0  0  0
 21 22  2  0  0  0  0
 26 27  1  0  0  0  0
 27 28  1  0  0  0  0
 27 29  1  0  0  0  0
 28 29  1  0  0  0  0
  2 30  1  0  0  0  0
  2 31  1  0  0  0  0
  3 32  1  0  0  0  0
  4 33  1  0  0  0  0
 10 34  1  0  0  0  0
 13 35  1  0  0  0  0
 14 36  1  0  0  0  0
 15 37  1  0  0  0  0
 16 38  1  0  0  0  0
 17 39  1  0  0  0  0
 19 40  1  0  0  0  0
 22 41  1  0  0  0  0
 23 42  1  0  0  0  0
 23 43  1  0  0  0  0
 23 44  1  0  0  0  0
 26 45  1  0  0  0  0
 27 46  1  0  0  0  0
 28 47  1  0  0  0  0
 28 48  1  0  0  0  0
 29 49  1  0  0  0  0
 29 50  1  0  0  0  0
M  END
> <Name>
29

> <IC50[uM]>
0.18

$$$$
29
  -OEChem-05192314333D
 Structure written by MMmdl.
 50 54  0     0  0  0  0  0  0999 V2000
   -6.3727   12.3493  -11.9877 C   0  0  0  0  0  0  0  0  0  0  0  0
   -6.5190   11.8167  -10.7261 C   0  0  0  0  0  0  0  0  0  0  0  0
   -7.6919   10.5755  -13.0077 C   0  0  0  0  0  0  0  0  0  0  0  0
   -6.9476   11.7646  -13.1157 C   0  0  0  0  0  0  0  0  0  0  0  0
   -7.8131   10.0080  -11.7494 C   0  0  0  0  0  0  0  0  0  0  0  0
   -7.2399   10.6155  -10.5946 C   0  0  0  0  0  0  0  0  0  0  0  0
   -7.6088    9.7430   -9.5107 C   0  0  0  0  0  0  0  0  0  0  0  0
   -8.2764    8.7286   -9.9647 N   0  0  0  0  0  0  0  0  0  0  0  0
   -8.4188    8.8758  -11.2882 N   0  0  0  0  0  0  0  0  0  0  0  0
   -7.3326    9.8988   -8.0180 C   0  0  0  0  0  0  0  0  0  0  0  0
   -5.4060   13.8057  -12.2007 S   0  0  0  0  0  0  0  0  0  0  0  0
   -5.9763   10.4855   -7.7248 C   0  0  0  0  0  0  0  0  0  0  0  0
   -5.8692   11.7523   -7.1523 C   0  0  0  0  0  0  0  0  0  0  0  0
   -4.6115   12.3005   -6.8946 C   0  0  0  0  0  0  0  0  0  0  0  0
   -3.4415   11.5837   -7.2014 C   0  0  0  0  0  0  0  0  0  0  0  0
   -3.5677   10.3182   -7.7642 C   0  0  0  0  0  0  0  0  0  0  0  0
   -4.8209    9.7630   -8.0308 C   0  0  0  0  0  0  0  0  0  0  0  0
   -2.1027   12.1584   -6.9334 C   0  0  0  0  0  0  0  0  0  0  0  0
   -1.7604   13.4248   -6.4226 C   0  0  0  0  0  0  0  0  0  0  0  0
   -0.4260   13.4533   -6.3925 N   0  0  0  0  0  0  0  0  0  0  0  0
    0.1594   12.3444   -6.7934 N   0  0  0  0  0  0  0  0  0  0  0  0
   -0.8210   11.5507   -7.1379 C   0  0  0  0  0  0  0  0  0  0  0  0
    0.4194   14.5816   -5.9703 C   0  0  0  0  0  0  0  0  0  0  0  0
   -4.4605   13.4170  -13.2280 O   0  0  0  0  0  0  0  0  0  0  0  0
   -6.3362   14.9020  -12.4291 O   0  0  0  0  0  0  0  0  0  0  0  0
   -4.5495   14.1196  -10.6911 N   0  0  0  0  0  0  0  0  0  0  0  0
   -3.3000   13.4420  -10.3686 C   0  0  0  0  0  0  0  0  0  0  0  0
   -2.0717   13.9935  -11.0748 C   0  0  0  0  0  0  0  0  0  0  0  0
   -2.2627   14.2439   -9.6094 C   0  0  0  0  0  0  0  0  0  0  0  0
   -5.5094   11.6373  -10.3279 H   0  0  0  0  0  0  0  0  0  0  0  0
   -7.0275   12.5723  -10.1093 H   0  0  0  0  0  0  0  0  0  0  0  0
   -8.1517   10.1219  -13.8733 H   0  0  0  0  0  0  0  0  0  0  0  0
   -6.8202   12.2294  -14.0822 H   0  0  0  0  0  0  0  0  0  0  0  0
   -8.0377    9.6171   -7.2499 H   0  0  0  0  0  0  0  0  0  0  0  0
   -6.7609   12.3104   -6.9078 H   0  0  0  0  0  0  0  0  0  0  0  0
   -4.5365   13.2843   -6.4555 H   0  0  0  0  0  0  0  0  0  0  0  0
   -2.6780    9.7532   -7.9999 H   0  0  0  0  0  0  0  0  0  0  0  0
   -4.8773    8.8184   -7.4700 H   0  0  0  0  0  0  0  0  0  0  0  0
   -4.8532    9.5514   -9.1098 H   0  0  0  0  0  0  0  0  0  0  0  0
   -2.4366   14.2100   -6.1184 H   0  0  0  0  0  0  0  0  0  0  0  0
   -0.6813   10.5543   -7.5304 H   0  0  0  0  0  0  0  0  0  0  0  0
    1.4790   14.3012   -6.0627 H   0  0  0  0  0  0  0  0  0  0  0  0
    0.2138   15.4529   -6.6095 H   0  0  0  0  0  0  0  0  0  0  0  0
    0.1971   14.8344   -4.9231 H   0  0  0  0  0  0  0  0  0  0  0  0
   -4.3503   15.0995  -10.6784 H   0  0  0  0  0  0  0  0  0  0  0  0
   -3.3270   12.3575  -10.1868 H   0  0  0  0  0  0  0  0  0  0  0  0
   -1.2811   13.3093  -11.4167 H   0  0  0  0  0  0  0  0  0  0  0  0
   -2.1756   14.8213  -11.7917 H   0  0  0  0  0  0  0  0  0  0  0  0
   -2.5050   15.2560   -9.2530 H   0  0  0  0  0  0  0  0  0  0  0  0
   -1.6106   13.7440   -8.8781 H   0  0  0  0  0  0  0  0  0  0  0  0
  1  2  1  0  0  0  0
  1  4  2  0  0  0  0
  1 11  1  0  0  0  0
  2  6  1  0  0  0  0
  3  4  1  0  0  0  0
  3  5  2  0  0  0  0
  5  6  1  0  0  0  0
  5  9  1  0  0  0  0
  6  7  2  0  0  0  0
  7  8  1  0  0  0  0
  7 10  1  0  0  0  0
  8  9  2  0  0  0  0
 10 12  2  3  0  0  0
 11 24  2  0  0  0  0
 11 25  2  0  0  0  0
 11 26  1  0  0  0  0
 12 13  1  0  0  0  0
 12 17  1  0  0  0  0
 13 14  2  0  0  0  0
 14 15  1  0  0  0  0
 15 16  2  0  0  0  0
 15 18  1  0  0  0  0
 16 17  1  0  0  0  0
 18 19  2  0  0  0  0
 18 22  1  0  0  0  0
 19 20  1  0  0  0  0
 20 21  1  0  0  0  0
 20 23  1  0  0  0  0
 21 22  2  0  0  0  0
 26 27  1  0  0  0  0
 27 28  1  0  0  0  0
 27 29  1  0  0  0  0
 28 29  1  0  0  0  0
  2 30  1  0  0  0  0
  2 31  1  0  0  0  0
  3 32  1  0  0  0  0
  4 33  1  0  0  0  0
 10 34  1  0  0  0  0
 13 35  1  0  0  0  0
 14 36  1  0  0  0  0
 16 37  1  0  0  0  0
 17 38  1  0  0  0  0
 17 39  1  0  0  0  0
 19 40  1  0  0  0  0
 22 41  1  0  0  0  0
 23 42  1  0  0  0  0
 23 43  1  0  0  0  0
 23 44  1  0  0  0  0
 26 45  1  0  0  0  0
 27 46  1  0  0  0  0
 28 47  1  0  0  0  0
 28 48  1  0  0  0  0
 29 49  1  0  0  0  0
 29 50  1  0  0  0  0
M  END
> <Name>
29

> <IC50[uM]>
0.18

$$$$
