13
  -OEChem-05192314333D
 Structure written by MMmdl.
 47 50  0     1  0  0  0  0  0999 V2000
   -2.2088   12.9419  -10.9697 C   0  0  1  0  0  0  0  0  0  0  0  0
   -2.1904   14.4671  -10.9424 C   0  0  0  0  0  0  0  0  0  0  0  0
   -3.6992   12.5876  -10.8377 C   0  0  0  0  0  0  0  0  0  0  0  0
   -1.6826   12.4744  -12.1795 O   0  0  0  0  0  0  0  0  0  0  0  0
   -3.5107   14.9139  -11.6089 C   0  0  0  0  0  0  0  0  0  0  0  0
   -4.3443   13.7200  -11.5243 N   0  0  0  0  0  0  0  0  0  0  0  0
   -6.3525   12.3601  -12.0338 C   0  0  0  0  0  0  0  0  0  0  0  0
   -6.9727   11.7556  -13.1375 C   0  0  0  0  0  0  0  0  0  0  0  0
   -7.7097   10.5633  -13.0339 C   0  0  0  0  0  0  0  0  0  0  0  0
   -6.5001   11.8056  -10.7491 C   0  0  0  0  0  0  0  0  0  0  0  0
   -6.8506   12.3073  -14.3824 O   0  0  0  0  0  0  0  0  0  0  0  0
   -5.5377   13.6382  -12.2001 C   0  0  0  0  0  0  0  0  0  0  0  0
   -5.9500   14.5444  -12.9177 O   0  0  0  0  0  0  0  0  0  0  0  0
   -7.2308   10.6159  -10.6131 C   0  0  0  0  0  0  0  0  0  0  0  0
   -7.8083   10.0113  -11.7524 C   0  0  0  0  0  0  0  0  0  0  0  0
   -8.4200    8.8675  -11.2880 N   0  0  0  0  0  0  0  0  0  0  0  0
   -8.2847    8.7400   -9.9757 N   0  0  0  0  0  0  0  0  0  0  0  0
   -7.6047    9.7473   -9.5145 C   0  0  0  0  0  0  0  0  0  0  0  0
   -7.3264    9.8951   -8.0245 C   0  0  0  0  0  0  0  0  0  0  0  0
   -5.9604   10.4805   -7.7353 C   0  0  0  0  0  0  0  0  0  0  0  0
   -4.8075    9.7596   -8.0491 C   0  0  0  0  0  0  0  0  0  0  0  0
   -3.4358   11.5809   -7.2415 C   0  0  0  0  0  0  0  0  0  0  0  0
   -4.5835   12.3061   -6.9225 C   0  0  0  0  0  0  0  0  0  0  0  0
   -3.5481   10.3107   -7.8024 C   0  0  0  0  0  0  0  0  0  0  0  0
   -5.8471   11.7541   -7.1666 C   0  0  0  0  0  0  0  0  0  0  0  0
   -4.4650   13.6954   -6.3241 C   0  0  0  0  0  0  0  0  0  0  0  0
   -1.6558   12.5461  -10.1051 H   0  0  0  0  0  0  0  0  0  0  0  0
   -2.1418   14.8314   -9.9056 H   0  0  0  0  0  0  0  0  0  0  0  0
   -1.3273   14.8503  -11.5065 H   0  0  0  0  0  0  0  0  0  0  0  0
   -3.9292   11.6343  -11.3361 H   0  0  0  0  0  0  0  0  0  0  0  0
   -4.0052   12.5329   -9.7825 H   0  0  0  0  0  0  0  0  0  0  0  0
   -1.6986   11.5246  -12.1863 H   0  0  0  0  0  0  0  0  0  0  0  0
   -3.9654   15.7526  -11.0614 H   0  0  0  0  0  0  0  0  0  0  0  0
   -3.3451   15.2065  -12.6563 H   0  0  0  0  0  0  0  0  0  0  0  0
   -8.1726   10.1006  -13.8930 H   0  0  0  0  0  0  0  0  0  0  0  0
   -6.0607   12.2852   -9.8870 H   0  0  0  0  0  0  0  0  0  0  0  0
   -6.5242   13.1961  -14.3048 H   0  0  0  0  0  0  0  0  0  0  0  0
   -8.9058    8.2145  -11.8690 H   0  0  0  0  0  0  0  0  0  0  0  0
   -8.0906   10.5553   -7.5885 H   0  0  0  0  0  0  0  0  0  0  0  0
   -7.3891    8.9020   -7.5556 H   0  0  0  0  0  0  0  0  0  0  0  0
   -4.8892    8.7741   -8.4833 H   0  0  0  0  0  0  0  0  0  0  0  0
   -2.4600   12.0040   -7.0537 H   0  0  0  0  0  0  0  0  0  0  0  0
   -2.6581    9.7501   -8.0474 H   0  0  0  0  0  0  0  0  0  0  0  0
   -6.7366   12.3128   -6.9153 H   0  0  0  0  0  0  0  0  0  0  0  0
   -4.4364   14.4418   -7.1316 H   0  0  0  0  0  0  0  0  0  0  0  0
   -5.3317   13.8902   -5.6754 H   0  0  0  0  0  0  0  0  0  0  0  0
   -3.5409   13.7615   -5.7311 H   0  0  0  0  0  0  0  0  0  0  0  0
  1  2  1  0  0  0  0
  1  3  1  0  0  0  0
  1  4  1  0  0  0  0
  2  5  1  0  0  0  0
  3  6  1  0  0  0  0
  5  6  1  0  0  0  0
  6 12  1  0  0  0  0
  7  8  2  0  0  0  0
  7 10  1  0  0  0  0
  7 12  1  0  0  0  0
  8  9  1  0  0  0  0
  8 11  1  0  0  0  0
  9 15  2  0  0  0  0
 10 14  2  0  0  0  0
 12 13  2  0  0  0  0
 14 15  1  0  0  0  0
 14 18  1  0  0  0  0
 15 16  1  0  0  0  0
 16 17  1  0  0  0  0
 17 18  2  0  0  0  0
 18 19  1  0  0  0  0
 19 20  1  0  0  0  0
 20 21  2  0  0  0  0
 20 25  1  0  0  0  0
 21 24  1  0  0  0  0
 22 23  1  0  0  0  0
 22 24  2  0  0  0  0
 23 25  2  0  0  0  0
 23 26  1  0  0  0  0
  1 27  1  0  0  0  0
  2 28  1  0  0  0  0
  2 29  1  0  0  0  0
  3 30  1  0  0  0  0
  3 31  1  0  0  0  0
  4 32  1  0  0  0  0
  5 33  1  0  0  0  0
  5 34  1  0  0  0  0
  9 35  1  0  0  0  0
 10 36  1  0  0  0  0
 11 37  1  0  0  0  0
 16 38  1  0  0  0  0
 19 39  1  0  0  0  0
 19 40  1  0  0  0  0
 21 41  1  0  0  0  0
 22 42  1  0  0  0  0
 24 43  1  0  0  0  0
 25 44  1  0  0  0  0
 26 45  1  0  0  0  0
 26 46  1  0  0  0  0
 26 47  1  0  0  0  0
M  END
> <Name>
13

> <IC50[uM]>
0.006

$$$$
13
  -OEChem-05192314333D
 Structure written by MMmdl.
 47 50  0     1  0  0  0  0  0999 V2000
   -2.2088   12.9419  -10.9697 C   0  0  1  0  0  0  0  0  0  0  0  0
   -2.1904   14.4671  -10.9424 C   0  0  0  0  0  0  0  0  0  0  0  0
   -3.6992   12.5876  -10.8377 C   0  0  0  0  0  0  0  0  0  0  0  0
   -1.6826   12.4744  -12.1795 O   0  0  0  0  0  0  0  0  0  0  0  0
   -3.5107   14.9139  -11.6089 C   0  0  0  0  0  0  0  0  0  0  0  0
   -4.3443   13.7200  -11.5243 N   0  0  0  0  0  0  0  0  0  0  0  0
   -6.3525   12.3601  -12.0338 C   0  0  0  0  0  0  0  0  0  0  0  0
   -6.9727   11.7556  -13.1375 C   0  0  0  0  0  0  0  0  0  0  0  0
   -7.7097   10.5633  -13.0339 C   0  0  0  0  0  0  0  0  0  0  0  0
   -6.5001   11.8056  -10.7491 C   0  0  0  0  0  0  0  0  0  0  0  0
   -6.8506   12.3073  -14.3824 O   0  0  0  0  0  0  0  0  0  0  0  0
   -5.5377   13.6382  -12.2001 C   0  0  0  0  0  0  0  0  0  0  0  0
   -5.9500   14.5444  -12.9177 O   0  0  0  0  0  0  0  0  0  0  0  0
   -7.2308   10.6159  -10.6131 C   0  0  0  0  0  0  0  0  0  0  0  0
   -7.8083   10.0113  -11.7524 C   0  0  0  0  0  0  0  0  0  0  0  0
   -8.4200    8.8675  -11.2880 N   0  0  0  0  0  0  0  0  0  0  0  0
   -8.2847    8.7400   -9.9757 N   0  0  0  0  0  0  0  0  0  0  0  0
   -7.6047    9.7473   -9.5145 C   0  0  0  0  0  0  0  0  0  0  0  0
   -7.3264    9.8951   -8.0245 C   0  0  0  0  0  0  0  0  0  0  0  0
   -5.9604   10.4805   -7.7353 C   0  0  0  0  0  0  0  0  0  0  0  0
   -4.8075    9.7596   -8.0491 C   0  0  0  0  0  0  0  0  0  0  0  0
   -3.4358   11.5809   -7.2415 C   0  0  0  0  0  0  0  0  0  0  0  0
   -4.5835   12.3061   -6.9225 C   0  0  0  0  0  0  0  0  0  0  0  0
   -3.5481   10.3107   -7.8024 C   0  0  0  0  0  0  0  0  0  0  0  0
   -5.8471   11.7541   -7.1666 C   0  0  0  0  0  0  0  0  0  0  0  0
   -4.4650   13.6954   -6.3241 C   0  0  0  0  0  0  0  0  0  0  0  0
   -1.6558   12.5461  -10.1051 H   0  0  0  0  0  0  0  0  0  0  0  0
   -2.1418   14.8314   -9.9056 H   0  0  0  0  0  0  0  0  0  0  0  0
   -1.3273   14.8503  -11.5065 H   0  0  0  0  0  0  0  0  0  0  0  0
   -3.9292   11.6343  -11.3361 H   0  0  0  0  0  0  0  0  0  0  0  0
   -4.0052   12.5329   -9.7825 H   0  0  0  0  0  0  0  0  0  0  0  0
   -1.6986   11.5246  -12.1863 H   0  0  0  0  0  0  0  0  0  0  0  0
   -3.9654   15.7526  -11.0614 H   0  0  0  0  0  0  0  0  0  0  0  0
   -3.3451   15.2065  -12.6563 H   0  0  0  0  0  0  0  0  0  0  0  0
   -8.1726   10.1006  -13.8930 H   0  0  0  0  0  0  0  0  0  0  0  0
   -6.0607   12.2852   -9.8870 H   0  0  0  0  0  0  0  0  0  0  0  0
   -6.5242   13.1961  -14.3048 H   0  0  0  0  0  0  0  0  0  0  0  0
   -8.6485    7.9874   -9.4268 H   0  0  0  0  0  0  0  0  0  0  0  0
   -8.0906   10.5553   -7.5885 H   0  0  0  0  0  0  0  0  0  0  0  0
   -7.3891    8.9020   -7.5556 H   0  0  0  0  0  0  0  0  0  0  0  0
   -4.8892    8.7741   -8.4833 H   0  0  0  0  0  0  0  0  0  0  0  0
   -2.4600   12.0040   -7.0537 H   0  0  0  0  0  0  0  0  0  0  0  0
   -2.6581    9.7501   -8.0474 H   0  0  0  0  0  0  0  0  0  0  0  0
   -6.7366   12.3128   -6.9153 H   0  0  0  0  0  0  0  0  0  0  0  0
   -4.4364   14.4418   -7.1316 H   0  0  0  0  0  0  0  0  0  0  0  0
   -5.3317   13.8902   -5.6754 H   0  0  0  0  0  0  0  0  0  0  0  0
   -3.5409   13.7615   -5.7311 H   0  0  0  0  0  0  0  0  0  0  0  0
  1  2  1  0  0  0  0
  1  3  1  0  0  0  0
  1  4  1  0  0  0  0
  2  5  1  0  0  0  0
  3  6  1  0  0  0  0
  5  6  1  0  0  0  0
  6 12  1  0  0  0  0
  7  8  1  0  0  0  0
  7 10  2  0  0  0  0
  7 12  1  0  0  0  0
  8  9  2  0  0  0  0
  8 11  1  0  0  0  0
  9 15  1  0  0  0  0
 10 14  1  0  0  0  0
 12 13  2  0  0  0  0
 14 15  1  0  0  0  0
 14 18  2  0  0  0  0
 15 16  2  0  0  0  0
 16 17  1  0  0  0  0
 17 18  1  0  0  0  0
 18 19  1  0  0  0  0
 19 20  1  0  0  0  0
 20 21  2  0  0  0  0
 20 25  1  0  0  0  0
 21 24  1  0  0  0  0
 22 23  1  0  0  0  0
 22 24  2  0  0  0  0
 23 25  2  0  0  0  0
 23 26  1  0  0  0  0
  1 27  1  0  0  0  0
  2 28  1  0  0  0  0
  2 29  1  0  0  0  0
  3 30  1  0  0  0  0
  3 31  1  0  0  0  0
  4 32  1  0  0  0  0
  5 33  1  0  0  0  0
  5 34  1  0  0  0  0
  9 35  1  0  0  0  0
 10 36  1  0  0  0  0
 11 37  1  0  0  0  0
 17 38  1  0  0  0  0
 19 39  1  0  0  0  0
 19 40  1  0  0  0  0
 21 41  1  0  0  0  0
 22 42  1  0  0  0  0
 24 43  1  0  0  0  0
 25 44  1  0  0  0  0
 26 45  1  0  0  0  0
 26 46  1  0  0  0  0
 26 47  1  0  0  0  0
M  END
> <Name>
13

> <IC50[uM]>
0.006

$$$$
13
  -OEChem-05192314333D
 Structure written by MMmdl.
 47 50  0     1  0  0  0  0  0999 V2000
   -2.2088   12.9419  -10.9697 C   0  0  1  0  0  0  0  0  0  0  0  0
   -2.1904   14.4671  -10.9424 C   0  0  0  0  0  0  0  0  0  0  0  0
   -3.6992   12.5876  -10.8377 C   0  0  0  0  0  0  0  0  0  0  0  0
   -1.6826   12.4744  -12.1795 O   0  0  0  0  0  0  0  0  0  0  0  0
   -3.5107   14.9139  -11.6089 C   0  0  0  0  0  0  0  0  0  0  0  0
   -4.3443   13.7200  -11.5243 N   0  0  0  0  0  0  0  0  0  0  0  0
   -6.3525   12.3601  -12.0338 C   0  0  0  0  0  0  0  0  0  0  0  0
   -6.9727   11.7556  -13.1375 C   0  0  0  0  0  0  0  0  0  0  0  0
   -7.7097   10.5633  -13.0339 C   0  0  0  0  0  0  0  0  0  0  0  0
   -6.5001   11.8056  -10.7491 C   0  0  0  0  0  0  0  0  0  0  0  0
   -6.8506   12.3073  -14.3824 O   0  0  0  0  0  0  0  0  0  0  0  0
   -5.5377   13.6382  -12.2001 C   0  0  0  0  0  0  0  0  0  0  0  0
   -5.9500   14.5444  -12.9177 O   0  0  0  0  0  0  0  0  0  0  0  0
   -7.2308   10.6159  -10.6131 C   0  0  0  0  0  0  0  0  0  0  0  0
   -7.8083   10.0113  -11.7524 C   0  0  0  0  0  0  0  0  0  0  0  0
   -8.4200    8.8675  -11.2880 N   0  0  0  0  0  0  0  0  0  0  0  0
   -8.2847    8.7400   -9.9757 N   0  0  0  0  0  0  0  0  0  0  0  0
   -7.6047    9.7473   -9.5145 C   0  0  0  0  0  0  0  0  0  0  0  0
   -7.3264    9.8951   -8.0245 C   0  0  0  0  0  0  0  0  0  0  0  0
   -5.9604   10.4805   -7.7353 C   0  0  0  0  0  0  0  0  0  0  0  0
   -4.8075    9.7596   -8.0491 C   0  0  0  0  0  0  0  0  0  0  0  0
   -3.4358   11.5809   -7.2415 C   0  0  0  0  0  0  0  0  0  0  0  0
   -4.5835   12.3061   -6.9225 C   0  0  0  0  0  0  0  0  0  0  0  0
   -3.5481   10.3107   -7.8024 C   0  0  0  0  0  0  0  0  0  0  0  0
   -5.8471   11.7541   -7.1666 C   0  0  0  0  0  0  0  0  0  0  0  0
   -4.4650   13.6954   -6.3241 C   0  0  0  0  0  0  0  0  0  0  0  0
   -1.6558   12.5461  -10.1051 H   0  0  0  0  0  0  0  0  0  0  0  0
   -2.1418   14.8314   -9.9056 H   0  0  0  0  0  0  0  0  0  0  0  0
   -1.3273   14.8503  -11.5065 H   0  0  0  0  0  0  0  0  0  0  0  0
   -3.9292   11.6343  -11.3361 H   0  0  0  0  0  0  0  0  0  0  0  0
   -4.0052   12.5329   -9.7825 H   0  0  0  0  0  0  0  0  0  0  0  0
   -1.6986   11.5246  -12.1863 H   0  0  0  0  0  0  0  0  0  0  0  0
   -3.9654   15.7526  -11.0614 H   0  0  0  0  0  0  0  0  0  0  0  0
   -3.3451   15.2065  -12.6563 H   0  0  0  0  0  0  0  0  0  0  0  0
   -8.1726   10.1006  -13.8930 H   0  0  0  0  0  0  0  0  0  0  0  0
   -6.0607   12.2852   -9.8870 H   0  0  0  0  0  0  0  0  0  0  0  0
   -8.9058    8.2145  -11.8690 H   0  0  0  0  0  0  0  0  0  0  0  0
   -8.6485    7.9874   -9.4268 H   0  0  0  0  0  0  0  0  0  0  0  0
   -8.0906   10.5553   -7.5885 H   0  0  0  0  0  0  0  0  0  0  0  0
   -7.3891    8.9020   -7.5556 H   0  0  0  0  0  0  0  0  0  0  0  0
   -4.8892    8.7741   -8.4833 H   0  0  0  0  0  0  0  0  0  0  0  0
   -2.4600   12.0040   -7.0537 H   0  0  0  0  0  0  0  0  0  0  0  0
   -2.6581    9.7501   -8.0474 H   0  0  0  0  0  0  0  0  0  0  0  0
   -6.7366   12.3128   -6.9153 H   0  0  0  0  0  0  0  0  0  0  0  0
   -4.4364   14.4418   -7.1316 H   0  0  0  0  0  0  0  0  0  0  0  0
   -5.3317   13.8902   -5.6754 H   0  0  0  0  0  0  0  0  0  0  0  0
   -3.5409   13.7615   -5.7311 H   0  0  0  0  0  0  0  0  0  0  0  0
  1  2  1  0  0  0  0
  1  3  1  0  0  0  0
  1  4  1  0  0  0  0
  2  5  1  0  0  0  0
  3  6  1  0  0  0  0
  5  6  1  0  0  0  0
  6 12  1  0  0  0  0
  7  8  1  0  0  0  0
  7 10  2  0  0  0  0
  7 12  1  0  0  0  0
  8  9  1  0  0  0  0
  8 11  2  0  0  0  0
  9 15  2  0  0  0  0
 10 14  1  0  0  0  0
 12 13  2  0  0  0  0
 14 15  1  0  0  0  0
 14 18  2  0  0  0  0
 15 16  1  0  0  0  0
 16 17  1  0  0  0  0
 17 18  1  0  0  0  0
 18 19  1  0  0  0  0
 19 20  1  0  0  0  0
 20 21  2  0  0  0  0
 20 25  1  0  0  0  0
 21 24  1  0  0  0  0
 22 23  1  0  0  0  0
 22 24  2  0  0  0  0
 23 25  2  0  0  0  0
 23 26  1  0  0  0  0
  1 27  1  0  0  0  0
  2 28  1  0  0  0  0
  2 29  1  0  0  0  0
  3 30  1  0  0  0  0
  3 31  1  0  0  0  0
  4 32  1  0  0  0  0
  5 33  1  0  0  0  0
  5 34  1  0  0  0  0
  9 35  1  0  0  0  0
 10 36  1  0  0  0  0
 16 37  1  0  0  0  0
 17 38  1  0  0  0  0
 19 39  1  0  0  0  0
 19 40  1  0  0  0  0
 21 41  1  0  0  0  0
 22 42  1  0  0  0  0
 24 43  1  0  0  0  0
 25 44  1  0  0  0  0
 26 45  1  0  0  0  0
 26 46  1  0  0  0  0
 26 47  1  0  0  0  0
M  END
> <Name>
13

> <IC50[uM]>
0.006

$$$$
13
  -OEChem-05192314333D
 Structure written by MMmdl.
 47 50  0     1  0  0  0  0  0999 V2000
   -2.2088   12.9419  -10.9697 C   0  0  1  0  0  0  0  0  0  0  0  0
   -2.1904   14.4671  -10.9424 C   0  0  0  0  0  0  0  0  0  0  0  0
   -3.6992   12.5876  -10.8377 C   0  0  0  0  0  0  0  0  0  0  0  0
   -1.6826   12.4744  -12.1795 O   0  0  0  0  0  0  0  0  0  0  0  0
   -3.5107   14.9139  -11.6089 C   0  0  0  0  0  0  0  0  0  0  0  0
   -4.3443   13.7200  -11.5243 N   0  0  0  0  0  0  0  0  0  0  0  0
   -6.3525   12.3601  -12.0338 C   0  0  0  0  0  0  0  0  0  0  0  0
   -6.9727   11.7556  -13.1375 C   0  0  0  0  0  0  0  0  0  0  0  0
   -7.7097   10.5633  -13.0339 C   0  0  0  0  0  0  0  0  0  0  0  0
   -6.5001   11.8056  -10.7491 C   0  0  0  0  0  0  0  0  0  0  0  0
   -6.8506   12.3073  -14.3824 O   0  0  0  0  0  0  0  0  0  0  0  0
   -5.5377   13.6382  -12.2001 C   0  0  0  0  0  0  0  0  0  0  0  0
   -5.9500   14.5444  -12.9177 O   0  0  0  0  0  0  0  0  0  0  0  0
   -7.2308   10.6159  -10.6131 C   0  0  0  0  0  0  0  0  0  0  0  0
   -7.8083   10.0113  -11.7524 C   0  0  0  0  0  0  0  0  0  0  0  0
   -8.4200    8.8675  -11.2880 N   0  0  0  0  0  0  0  0  0  0  0  0
   -8.2847    8.7400   -9.9757 N   0  0  0  0  0  0  0  0  0  0  0  0
   -7.6047    9.7473   -9.5145 C   0  0  0  0  0  0  0  0  0  0  0  0
   -7.3264    9.8951   -8.0245 C   0  0  0  0  0  0  0  0  0  0  0  0
   -5.9604   10.4805   -7.7353 C   0  0  0  0  0  0  0  0  0  0  0  0
   -4.8075    9.7596   -8.0491 C   0  0  0  0  0  0  0  0  0  0  0  0
   -3.4358   11.5809   -7.2415 C   0  0  0  0  0  0  0  0  0  0  0  0
   -4.5835   12.3061   -6.9225 C   0  0  0  0  0  0  0  0  0  0  0  0
   -3.5481   10.3107   -7.8024 C   0  0  0  0  0  0  0  0  0  0  0  0
   -5.8471   11.7541   -7.1666 C   0  0  0  0  0  0  0  0  0  0  0  0
   -4.4650   13.6954   -6.3241 C   0  0  0  0  0  0  0  0  0  0  0  0
   -1.6558   12.5461  -10.1051 H   0  0  0  0  0  0  0  0  0  0  0  0
   -2.1418   14.8314   -9.9056 H   0  0  0  0  0  0  0  0  0  0  0  0
   -1.3273   14.8503  -11.5065 H   0  0  0  0  0  0  0  0  0  0  0  0
   -3.9292   11.6343  -11.3361 H   0  0  0  0  0  0  0  0  0  0  0  0
   -4.0052   12.5329   -9.7825 H   0  0  0  0  0  0  0  0  0  0  0  0
   -1.6986   11.5246  -12.1863 H   0  0  0  0  0  0  0  0  0  0  0  0
   -3.9654   15.7526  -11.0614 H   0  0  0  0  0  0  0  0  0  0  0  0
   -3.3451   15.2065  -12.6563 H   0  0  0  0  0  0  0  0  0  0  0  0
   -8.1726   10.1006  -13.8930 H   0  0  0  0  0  0  0  0  0  0  0  0
   -6.0607   12.2852   -9.8870 H   0  0  0  0  0  0  0  0  0  0  0  0
   -6.5242   13.1961  -14.3048 H   0  0  0  0  0  0  0  0  0  0  0  0
   -6.6702    9.1804   -9.6379 H   0  0  0  0  0  0  0  0  0  0  0  0
   -8.0906   10.5553   -7.5885 H   0  0  0  0  0  0  0  0  0  0  0  0
   -7.3891    8.9020   -7.5556 H   0  0  0  0  0  0  0  0  0  0  0  0
   -4.8892    8.7741   -8.4833 H   0  0  0  0  0  0  0  0  0  0  0  0
   -2.4600   12.0040   -7.0537 H   0  0  0  0  0  0  0  0  0  0  0  0
   -2.6581    9.7501   -8.0474 H   0  0  0  0  0  0  0  0  0  0  0  0
   -6.7366   12.3128   -6.9153 H   0  0  0  0  0  0  0  0  0  0  0  0
   -4.4364   14.4418   -7.1316 H   0  0  0  0  0  0  0  0  0  0  0  0
   -5.3317   13.8902   -5.6754 H   0  0  0  0  0  0  0  0  0  0  0  0
   -3.5409   13.7615   -5.7311 H   0  0  0  0  0  0  0  0  0  0  0  0
  1  2  1  0  0  0  0
  1  3  1  0  0  0  0
  1  4  1  0  0  0  0
  2  5  1  0  0  0  0
  3  6  1  0  0  0  0
  5  6  1  0  0  0  0
  6 12  1  0  0  0  0
  7  8  2  0  0  0  0
  7 10  1  0  0  0  0
  7 12  1  0  0  0  0
  8  9  1  0  0  0  0
  8 11  1  0  0  0  0
  9 15  2  0  0  0  0
 10 14  2  0  0  0  0
 12 13  2  0  0  0  0
 14 15  1  0  0  0  0
 14 18  1  0  0  0  0
 15 16  1  0  0  0  0
 16 17  2  0  0  0  0
 17 18  1  0  0  0  0
 18 19  1  0  0  0  0
 19 20  1  0  0  0  0
 20 21  2  0  0  0  0
 20 25  1  0  0  0  0
 21 24  1  0  0  0  0
 22 23  1  0  0  0  0
 22 24  2  0  0  0  0
 23 25  2  0  0  0  0
 23 26  1  0  0  0  0
  1 27  1  0  0  0  0
  2 28  1  0  0  0  0
  2 29  1  0  0  0  0
  3 30  1  0  0  0  0
  3 31  1  0  0  0  0
  4 32  1  0  0  0  0
  5 33  1  0  0  0  0
  5 34  1  0  0  0  0
  9 35  1  0  0  0  0
 10 36  1  0  0  0  0
 11 37  1  0  0  0  0
 18 38  1  0  0  0  0
 19 39  1  0  0  0  0
 19 40  1  0  0  0  0
 21 41  1  0  0  0  0
 22 42  1  0  0  0  0
 24 43  1  0  0  0  0
 25 44  1  0  0  0  0
 26 45  1  0  0  0  0
 26 46  1  0  0  0  0
 26 47  1  0  0  0  0
M  END
> <Name>
13

> <IC50[uM]>
0.006

$$$$
13
  -OEChem-05192314333D
 Structure written by MMmdl.
 47 50  0     1  0  0  0  0  0999 V2000
   -2.2088   12.9419  -10.9697 C   0  0  1  0  0  0  0  0  0  0  0  0
   -2.1904   14.4671  -10.9424 C   0  0  0  0  0  0  0  0  0  0  0  0
   -3.6992   12.5876  -10.8377 C   0  0  0  0  0  0  0  0  0  0  0  0
   -1.6826   12.4744  -12.1795 O   0  0  0  0  0  0  0  0  0  0  0  0
   -3.5107   14.9139  -11.6089 C   0  0  0  0  0  0  0  0  0  0  0  0
   -4.3443   13.7200  -11.5243 N   0  0  0  0  0  0  0  0  0  0  0  0
   -6.3525   12.3601  -12.0338 C   0  0  0  0  0  0  0  0  0  0  0  0
   -6.9727   11.7556  -13.1375 C   0  0  0  0  0  0  0  0  0  0  0  0
   -7.7097   10.5633  -13.0339 C   0  0  0  0  0  0  0  0  0  0  0  0
   -6.5001   11.8056  -10.7491 C   0  0  0  0  0  0  0  0  0  0  0  0
   -6.8506   12.3073  -14.3824 O   0  0  0  0  0  0  0  0  0  0  0  0
   -5.5377   13.6382  -12.2001 C   0  0  0  0  0  0  0  0  0  0  0  0
   -5.9500   14.5444  -12.9177 O   0  0  0  0  0  0  0  0  0  0  0  0
   -7.2308   10.6159  -10.6131 C   0  0  0  0  0  0  0  0  0  0  0  0
   -7.8083   10.0113  -11.7524 C   0  0  0  0  0  0  0  0  0  0  0  0
   -8.4200    8.8675  -11.2880 N   0  0  0  0  0  0  0  0  0  0  0  0
   -8.2847    8.7400   -9.9757 N   0  0  0  0  0  0  0  0  0  0  0  0
   -7.6047    9.7473   -9.5145 C   0  0  0  0  0  0  0  0  0  0  0  0
   -7.3264    9.8951   -8.0245 C   0  0  0  0  0  0  0  0  0  0  0  0
   -5.9604   10.4805   -7.7353 C   0  0  0  0  0  0  0  0  0  0  0  0
   -4.8075    9.7596   -8.0491 C   0  0  0  0  0  0  0  0  0  0  0  0
   -3.4358   11.5809   -7.2415 C   0  0  0  0  0  0  0  0  0  0  0  0
   -4.5835   12.3061   -6.9225 C   0  0  0  0  0  0  0  0  0  0  0  0
   -3.5481   10.3107   -7.8024 C   0  0  0  0  0  0  0  0  0  0  0  0
   -5.8471   11.7541   -7.1666 C   0  0  0  0  0  0  0  0  0  0  0  0
   -4.4650   13.6954   -6.3241 C   0  0  0  0  0  0  0  0  0  0  0  0
   -1.6558   12.5461  -10.1051 H   0  0  0  0  0  0  0  0  0  0  0  0
   -2.1418   14.8314   -9.9056 H   0  0  0  0  0  0  0  0  0  0  0  0
   -1.3273   14.8503  -11.5065 H   0  0  0  0  0  0  0  0  0  0  0  0
   -3.9292   11.6343  -11.3361 H   0  0  0  0  0  0  0  0  0  0  0  0
   -4.0052   12.5329   -9.7825 H   0  0  0  0  0  0  0  0  0  0  0  0
   -1.6986   11.5246  -12.1863 H   0  0  0  0  0  0  0  0  0  0  0  0
   -3.9654   15.7526  -11.0614 H   0  0  0  0  0  0  0  0  0  0  0  0
   -3.3451   15.2065  -12.6563 H   0  0  0  0  0  0  0  0  0  0  0  0
   -8.1726   10.1006  -13.8930 H   0  0  0  0  0  0  0  0  0  0  0  0
   -6.0607   12.2852   -9.8870 H   0  0  0  0  0  0  0  0  0  0  0  0
   -6.5242   13.1961  -14.3048 H   0  0  0  0  0  0  0  0  0  0  0  0
   -9.3939    8.9068  -11.5115 H   0  0  0  0  0  0  0  0  0  0  0  0
   -9.1879    8.7222   -9.5468 H   0  0  0  0  0  0  0  0  0  0  0  0
   -8.0295    9.6121   -7.2551 H   0  0  0  0  0  0  0  0  0  0  0  0
   -4.8892    8.7741   -8.4833 H   0  0  0  0  0  0  0  0  0  0  0  0
   -2.4600   12.0040   -7.0537 H   0  0  0  0  0  0  0  0  0  0  0  0
   -2.6581    9.7501   -8.0474 H   0  0  0  0  0  0  0  0  0  0  0  0
   -6.7366   12.3128   -6.9153 H   0  0  0  0  0  0  0  0  0  0  0  0
   -4.4364   14.4418   -7.1316 H   0  0  0  0  0  0  0  0  0  0  0  0
   -5.3317   13.8902   -5.6754 H   0  0  0  0  0  0  0  0  0  0  0  0
   -3.5409   13.7615   -5.7311 H   0  0  0  0  0  0  0  0  0  0  0  0
  1  2  1  0  0  0  0
  1  3  1  0  0  0  0
  1  4  1  0  0  0  0
  2  5  1  0  0  0  0
  3  6  1  0  0  0  0
  5  6  1  0  0  0  0
  6 12  1  0  0  0  0
  7  8  2  0  0  0  0
  7 10  1  0  0  0  0
  7 12  1  0  0  0  0
  8  9  1  0  0  0  0
  8 11  1  0  0  0  0
  9 15  2  0  0  0  0
 10 14  2  0  0  0  0
 12 13  2  0  0  0  0
 14 15  1  0  0  0  0
 14 18  1  0  0  0  0
 15 16  1  0  0  0  0
 16 17  1  0  0  0  0
 17 18  1  0  0  0  0
 18 19  2  0  0  0  0
 19 20  1  0  0  0  0
 20 21  2  0  0  0  0
 20 25  1  0  0  0  0
 21 24  1  0  0  0  0
 22 23  1  0  0  0  0
 22 24  2  0  0  0  0
 23 25  2  0  0  0  0
 23 26  1  0  0  0  0
  1 27  1  0  0  0  0
  2 28  1  0  0  0  0
  2 29  1  0  0  0  0
  3 30  1  0  0  0  0
  3 31  1  0  0  0  0
  4 32  1  0  0  0  0
  5 33  1  0  0  0  0
  5 34  1  0  0  0  0
  9 35  1  0  0  0  0
 10 36  1  0  0  0  0
 11 37  1  0  0  0  0
 16 38  1  0  0  0  0
 17 39  1  0  0  0  0
 19 40  1  0  0  0  0
 21 41  1  0  0  0  0
 22 42  1  0  0  0  0
 24 43  1  0  0  0  0
 25 44  1  0  0  0  0
 26 45  1  0  0  0  0
 26 46  1  0  0  0  0
 26 47  1  0  0  0  0
M  END
> <Name>
13

> <IC50[uM]>
0.006

$$$$
13
  -OEChem-05192314333D
 Structure written by MMmdl.
 47 50  0     1  0  0  0  0  0999 V2000
   -2.2088   12.9419  -10.9697 C   0  0  1  0  0  0  0  0  0  0  0  0
   -2.1904   14.4671  -10.9424 C   0  0  0  0  0  0  0  0  0  0  0  0
   -3.6992   12.5876  -10.8377 C   0  0  0  0  0  0  0  0  0  0  0  0
   -1.6826   12.4744  -12.1795 O   0  0  0  0  0  0  0  0  0  0  0  0
   -3.5107   14.9139  -11.6089 C   0  0  0  0  0  0  0  0  0  0  0  0
   -4.3443   13.7200  -11.5243 N   0  0  0  0  0  0  0  0  0  0  0  0
   -6.3525   12.3601  -12.0338 C   0  0  0  0  0  0  0  0  0  0  0  0
   -6.9727   11.7556  -13.1375 C   0  0  0  0  0  0  0  0  0  0  0  0
   -7.7097   10.5633  -13.0339 C   0  0  0  0  0  0  0  0  0  0  0  0
   -6.5001   11.8056  -10.7491 C   0  0  0  0  0  0  0  0  0  0  0  0
   -6.8506   12.3073  -14.3824 O   0  0  0  0  0  0  0  0  0  0  0  0
   -5.5377   13.6382  -12.2001 C   0  0  0  0  0  0  0  0  0  0  0  0
   -5.9500   14.5444  -12.9177 O   0  0  0  0  0  0  0  0  0  0  0  0
   -7.2308   10.6159  -10.6131 C   0  0  0  0  0  0  0  0  0  0  0  0
   -7.8083   10.0113  -11.7524 C   0  0  0  0  0  0  0  0  0  0  0  0
   -8.4200    8.8675  -11.2880 N   0  0  0  0  0  0  0  0  0  0  0  0
   -8.2847    8.7400   -9.9757 N   0  0  0  0  0  0  0  0  0  0  0  0
   -7.6047    9.7473   -9.5145 C   0  0  0  0  0  0  0  0  0  0  0  0
   -7.3264    9.8951   -8.0245 C   0  0  0  0  0  0  0  0  0  0  0  0
   -5.9604   10.4805   -7.7353 C   0  0  0  0  0  0  0  0  0  0  0  0
   -4.8075    9.7596   -8.0491 C   0  0  0  0  0  0  0  0  0  0  0  0
   -3.4358   11.5809   -7.2415 C   0  0  0  0  0  0  0  0  0  0  0  0
   -4.5835   12.3061   -6.9225 C   0  0  0  0  0  0  0  0  0  0  0  0
   -3.5481   10.3107   -7.8024 C   0  0  0  0  0  0  0  0  0  0  0  0
   -5.8471   11.7541   -7.1666 C   0  0  0  0  0  0  0  0  0  0  0  0
   -4.4650   13.6954   -6.3241 C   0  0  0  0  0  0  0  0  0  0  0  0
   -1.6558   12.5461  -10.1051 H   0  0  0  0  0  0  0  0  0  0  0  0
   -2.1418   14.8314   -9.9056 H   0  0  0  0  0  0  0  0  0  0  0  0
   -1.3273   14.8503  -11.5065 H   0  0  0  0  0  0  0  0  0  0  0  0
   -3.9292   11.6343  -11.3361 H   0  0  0  0  0  0  0  0  0  0  0  0
   -4.0052   12.5329   -9.7825 H   0  0  0  0  0  0  0  0  0  0  0  0
   -1.6986   11.5246  -12.1863 H   0  0  0  0  0  0  0  0  0  0  0  0
   -3.9654   15.7526  -11.0614 H   0  0  0  0  0  0  0  0  0  0  0  0
   -3.3451   15.2065  -12.6563 H   0  0  0  0  0  0  0  0  0  0  0  0
   -8.7298   10.7663  -13.3920 H   0  0  0  0  0  0  0  0  0  0  0  0
   -7.2340    9.8162  -13.6862 H   0  0  0  0  0  0  0  0  0  0  0  0
   -6.0607   12.2852   -9.8870 H   0  0  0  0  0  0  0  0  0  0  0  0
   -8.6485    7.9874   -9.4268 H   0  0  0  0  0  0  0  0  0  0  0  0
   -8.0906   10.5553   -7.5885 H   0  0  0  0  0  0  0  0  0  0  0  0
   -7.3891    8.9020   -7.5556 H   0  0  0  0  0  0  0  0  0  0  0  0
   -4.8892    8.7741   -8.4833 H   0  0  0  0  0  0  0  0  0  0  0  0
   -2.4600   12.0040   -7.0537 H   0  0  0  0  0  0  0  0  0  0  0  0
   -2.6581    9.7501   -8.0474 H   0  0  0  0  0  0  0  0  0  0  0  0
   -6.7366   12.3128   -6.9153 H   0  0  0  0  0  0  0  0  0  0  0  0
   -4.4364   14.4418   -7.1316 H   0  0  0  0  0  0  0  0  0  0  0  0
   -5.3317   13.8902   -5.6754 H   0  0  0  0  0  0  0  0  0  0  0  0
   -3.5409   13.7615   -5.7311 H   0  0  0  0  0  0  0  0  0  0  0  0
  1  2  1  0  0  0  0
  1  3  1  0  0  0  0
  1  4  1  0  0  0  0
  2  5  1  0  0  0  0
  3  6  1  0  0  0  0
  5  6  1  0  0  0  0
  6 12  1  0  0  0  0
  7  8  1  0  0  0  0
  7 10  2  0  0  0  0
  7 12  1  0  0  0  0
  8  9  1  0  0  0  0
  8 11  2  0  0  0  0
  9 15  1  0  0  0  0
 10 14  1  0  0  0  0
 12 13  2  0  0  0  0
 14 15  1  0  0  0  0
 14 18  2  0  0  0  0
 15 16  2  0  0  0  0
 16 17  1  0  0  0  0
 17 18  1  0  0  0  0
 18 19  1  0  0  0  0
 19 20  1  0  0  0  0
 20 21  2  0  0  0  0
 20 25  1  0  0  0  0
 21 24  1  0  0  0  0
 22 23  1  0  0  0  0
 22 24  2  0  0  0  0
 23 25  2  0  0  0  0
 23 26  1  0  0  0  0
  1 27  1  0  0  0  0
  2 28  1  0  0  0  0
  2 29  1  0  0  0  0
  3 30  1  0  0  0  0
  3 31  1  0  0  0  0
  4 32  1  0  0  0  0
  5 33  1  0  0  0  0
  5 34  1  0  0  0  0
  9 35  1  0  0  0  0
  9 36  1  0  0  0  0
 10 37  1  0  0  0  0
 17 38  1  0  0  0  0
 19 39  1  0  0  0  0
 19 40  1  0  0  0  0
 21 41  1  0  0  0  0
 22 42  1  0  0  0  0
 24 43  1  0  0  0  0
 25 44  1  0  0  0  0
 26 45  1  0  0  0  0
 26 46  1  0  0  0  0
 26 47  1  0  0  0  0
M  END
> <Name>
13

> <IC50[uM]>
0.006

$$$$
13
  -OEChem-05192314333D
 Structure written by MMmdl.
 47 50  0     1  0  0  0  0  0999 V2000
   -2.2088   12.9419  -10.9697 C   0  0  1  0  0  0  0  0  0  0  0  0
   -2.1904   14.4671  -10.9424 C   0  0  0  0  0  0  0  0  0  0  0  0
   -3.6992   12.5876  -10.8377 C   0  0  0  0  0  0  0  0  0  0  0  0
   -1.6826   12.4744  -12.1795 O   0  0  0  0  0  0  0  0  0  0  0  0
   -3.5107   14.9139  -11.6089 C   0  0  0  0  0  0  0  0  0  0  0  0
   -4.3443   13.7200  -11.5243 N   0  0  0  0  0  0  0  0  0  0  0  0
   -6.3525   12.3601  -12.0338 C   0  0  0  0  0  0  0  0  0  0  0  0
   -6.9727   11.7556  -13.1375 C   0  0  0  0  0  0  0  0  0  0  0  0
   -7.7097   10.5633  -13.0339 C   0  0  0  0  0  0  0  0  0  0  0  0
   -6.5001   11.8056  -10.7491 C   0  0  0  0  0  0  0  0  0  0  0  0
   -6.8506   12.3073  -14.3824 O   0  0  0  0  0  0  0  0  0  0  0  0
   -5.5377   13.6382  -12.2001 C   0  0  0  0  0  0  0  0  0  0  0  0
   -5.9500   14.5444  -12.9177 O   0  0  0  0  0  0  0  0  0  0  0  0
   -7.2308   10.6159  -10.6131 C   0  0  0  0  0  0  0  0  0  0  0  0
   -7.8083   10.0113  -11.7524 C   0  0  0  0  0  0  0  0  0  0  0  0
   -8.4200    8.8675  -11.2880 N   0  0  0  0  0  0  0  0  0  0  0  0
   -8.2847    8.7400   -9.9757 N   0  0  0  0  0  0  0  0  0  0  0  0
   -7.6047    9.7473   -9.5145 C   0  0  0  0  0  0  0  0  0  0  0  0
   -7.3264    9.8951   -8.0245 C   0  0  0  0  0  0  0  0  0  0  0  0
   -5.9604   10.4805   -7.7353 C   0  0  0  0  0  0  0  0  0  0  0  0
   -4.8075    9.7596   -8.0491 C   0  0  0  0  0  0  0  0  0  0  0  0
   -3.4358   11.5809   -7.2415 C   0  0  0  0  0  0  0  0  0  0  0  0
   -4.5835   12.3061   -6.9225 C   0  0  0  0  0  0  0  0  0  0  0  0
   -3.5481   10.3107   -7.8024 C   0  0  0  0  0  0  0  0  0  0  0  0
   -5.8471   11.7541   -7.1666 C   0  0  0  0  0  0  0  0  0  0  0  0
   -4.4650   13.6954   -6.3241 C   0  0  0  0  0  0  0  0  0  0  0  0
   -1.6558   12.5461  -10.1051 H   0  0  0  0  0  0  0  0  0  0  0  0
   -2.1418   14.8314   -9.9056 H   0  0  0  0  0  0  0  0  0  0  0  0
   -1.3273   14.8503  -11.5065 H   0  0  0  0  0  0  0  0  0  0  0  0
   -3.9292   11.6343  -11.3361 H   0  0  0  0  0  0  0  0  0  0  0  0
   -4.0052   12.5329   -9.7825 H   0  0  0  0  0  0  0  0  0  0  0  0
   -1.6986   11.5246  -12.1863 H   0  0  0  0  0  0  0  0  0  0  0  0
   -3.9654   15.7526  -11.0614 H   0  0  0  0  0  0  0  0  0  0  0  0
   -3.3451   15.2065  -12.6563 H   0  0  0  0  0  0  0  0  0  0  0  0
   -8.7298   10.7663  -13.3920 H   0  0  0  0  0  0  0  0  0  0  0  0
   -7.2340    9.8162  -13.6862 H   0  0  0  0  0  0  0  0  0  0  0  0
   -6.0607   12.2852   -9.8870 H   0  0  0  0  0  0  0  0  0  0  0  0
   -8.9058    8.2145  -11.8690 H   0  0  0  0  0  0  0  0  0  0  0  0
   -8.0906   10.5553   -7.5885 H   0  0  0  0  0  0  0  0  0  0  0  0
   -7.3891    8.9020   -7.5556 H   0  0  0  0  0  0  0  0  0  0  0  0
   -4.8892    8.7741   -8.4833 H   0  0  0  0  0  0  0  0  0  0  0  0
   -2.4600   12.0040   -7.0537 H   0  0  0  0  0  0  0  0  0  0  0  0
   -2.6581    9.7501   -8.0474 H   0  0  0  0  0  0  0  0  0  0  0  0
   -6.7366   12.3128   -6.9153 H   0  0  0  0  0  0  0  0  0  0  0  0
   -4.4364   14.4418   -7.1316 H   0  0  0  0  0  0  0  0  0  0  0  0
   -5.3317   13.8902   -5.6754 H   0  0  0  0  0  0  0  0  0  0  0  0
   -3.5409   13.7615   -5.7311 H   0  0  0  0  0  0  0  0  0  0  0  0
  1  2  1  0  0  0  0
  1  3  1  0  0  0  0
  1  4  1  0  0  0  0
  2  5  1  0  0  0  0
  3  6  1  0  0  0  0
  5  6  1  0  0  0  0
  6 12  1  0  0  0  0
  7  8  1  0  0  0  0
  7 10  2  0  0  0  0
  7 12  1  0  0  0  0
  8  9  1  0  0  0  0
  8 11  2  0  0  0  0
  9 15  1  0  0  0  0
 10 14  1  0  0  0  0
 12 13  2  0  0  0  0
 14 15  2  0  0  0  0
 14 18  1  0  0  0  0
 15 16  1  0  0  0  0
 16 17  1  0  0  0  0
 17 18  2  0  0  0  0
 18 19  1  0  0  0  0
 19 20  1  0  0  0  0
 20 21  2  0  0  0  0
 20 25  1  0  0  0  0
 21 24  1  0  0  0  0
 22 23  1  0  0  0  0
 22 24  2  0  0  0  0
 23 25  2  0  0  0  0
 23 26  1  0  0  0  0
  1 27  1  0  0  0  0
  2 28  1  0  0  0  0
  2 29  1  0  0  0  0
  3 30  1  0  0  0  0
  3 31  1  0  0  0  0
  4 32  1  0  0  0  0
  5 33  1  0  0  0  0
  5 34  1  0  0  0  0
  9 35  1  0  0  0  0
  9 36  1  0  0  0  0
 10 37  1  0  0  0  0
 16 38  1  0  0  0  0
 19 39  1  0  0  0  0
 19 40  1  0  0  0  0
 21 41  1  0  0  0  0
 22 42  1  0  0  0  0
 24 43  1  0  0  0  0
 25 44  1  0  0  0  0
 26 45  1  0  0  0  0
 26 46  1  0  0  0  0
 26 47  1  0  0  0  0
M  END
> <Name>
13

> <IC50[uM]>
0.006

$$$$
13
  -OEChem-05192314333D
 Structure written by MMmdl.
 47 50  0     1  0  0  0  0  0999 V2000
   -2.2088   12.9419  -10.9697 C   0  0  1  0  0  0  0  0  0  0  0  0
   -2.1904   14.4671  -10.9424 C   0  0  0  0  0  0  0  0  0  0  0  0
   -3.6992   12.5876  -10.8377 C   0  0  0  0  0  0  0  0  0  0  0  0
   -1.6826   12.4744  -12.1795 O   0  0  0  0  0  0  0  0  0  0  0  0
   -3.5107   14.9139  -11.6089 C   0  0  0  0  0  0  0  0  0  0  0  0
   -4.3443   13.7200  -11.5243 N   0  0  0  0  0  0  0  0  0  0  0  0
   -6.3525   12.3601  -12.0338 C   0  0  0  0  0  0  0  0  0  0  0  0
   -6.9727   11.7556  -13.1375 C   0  0  0  0  0  0  0  0  0  0  0  0
   -7.7097   10.5633  -13.0339 C   0  0  0  0  0  0  0  0  0  0  0  0
   -6.5001   11.8056  -10.7491 C   0  0  0  0  0  0  0  0  0  0  0  0
   -6.8506   12.3073  -14.3824 O   0  0  0  0  0  0  0  0  0  0  0  0
   -5.5377   13.6382  -12.2001 C   0  0  0  0  0  0  0  0  0  0  0  0
   -5.9500   14.5444  -12.9177 O   0  0  0  0  0  0  0  0  0  0  0  0
   -7.2308   10.6159  -10.6131 C   0  0  0  0  0  0  0  0  0  0  0  0
   -7.8083   10.0113  -11.7524 C   0  0  0  0  0  0  0  0  0  0  0  0
   -8.4200    8.8675  -11.2880 N   0  0  0  0  0  0  0  0  0  0  0  0
   -8.2847    8.7400   -9.9757 N   0  0  0  0  0  0  0  0  0  0  0  0
   -7.6047    9.7473   -9.5145 C   0  0  0  0  0  0  0  0  0  0  0  0
   -7.3264    9.8951   -8.0245 C   0  0  0  0  0  0  0  0  0  0  0  0
   -5.9604   10.4805   -7.7353 C   0  0  0  0  0  0  0  0  0  0  0  0
   -4.8075    9.7596   -8.0491 C   0  0  0  0  0  0  0  0  0  0  0  0
   -3.4358   11.5809   -7.2415 C   0  0  0  0  0  0  0  0  0  0  0  0
   -4.5835   12.3061   -6.9225 C   0  0  0  0  0  0  0  0  0  0  0  0
   -3.5481   10.3107   -7.8024 C   0  0  0  0  0  0  0  0  0  0  0  0
   -5.8471   11.7541   -7.1666 C   0  0  0  0  0  0  0  0  0  0  0  0
   -4.4650   13.6954   -6.3241 C   0  0  0  0  0  0  0  0  0  0  0  0
   -1.6558   12.5461  -10.1051 H   0  0  0  0  0  0  0  0  0  0  0  0
   -2.1418   14.8314   -9.9056 H   0  0  0  0  0  0  0  0  0  0  0  0
   -1.3273   14.8503  -11.5065 H   0  0  0  0  0  0  0  0  0  0  0  0
   -3.9292   11.6343  -11.3361 H   0  0  0  0  0  0  0  0  0  0  0  0
   -4.0052   12.5329   -9.7825 H   0  0  0  0  0  0  0  0  0  0  0  0
   -1.6986   11.5246  -12.1863 H   0  0  0  0  0  0  0  0  0  0  0  0
   -3.9654   15.7526  -11.0614 H   0  0  0  0  0  0  0  0  0  0  0  0
   -3.3451   15.2065  -12.6563 H   0  0  0  0  0  0  0  0  0  0  0  0
   -8.7298   10.7663  -13.3920 H   0  0  0  0  0  0  0  0  0  0  0  0
   -7.2340    9.8162  -13.6862 H   0  0  0  0  0  0  0  0  0  0  0  0
   -6.0607   12.2852   -9.8870 H   0  0  0  0  0  0  0  0  0  0  0  0
   -6.5242   13.1961  -14.3048 H   0  0  0  0  0  0  0  0  0  0  0  0
   -8.6485    7.9874   -9.4268 H   0  0  0  0  0  0  0  0  0  0  0  0
   -8.0295    9.6121   -7.2551 H   0  0  0  0  0  0  0  0  0  0  0  0
   -4.8892    8.7741   -8.4833 H   0  0  0  0  0  0  0  0  0  0  0  0
   -2.4600   12.0040   -7.0537 H   0  0  0  0  0  0  0  0  0  0  0  0
   -2.6581    9.7501   -8.0474 H   0  0  0  0  0  0  0  0  0  0  0  0
   -6.7366   12.3128   -6.9153 H   0  0  0  0  0  0  0  0  0  0  0  0
   -4.4364   14.4418   -7.1316 H   0  0  0  0  0  0  0  0  0  0  0  0
   -5.3317   13.8902   -5.6754 H   0  0  0  0  0  0  0  0  0  0  0  0
   -3.5409   13.7615   -5.7311 H   0  0  0  0  0  0  0  0  0  0  0  0
  1  2  1  0  0  0  0
  1  3  1  0  0  0  0
  1  4  1  0  0  0  0
  2  5  1  0  0  0  0
  3  6  1  0  0  0  0
  5  6  1  0  0  0  0
  6 12  1  0  0  0  0
  7  8  2  0  0  0  0
  7 10  1  0  0  0  0
  7 12  1  0  0  0  0
  8  9  1  0  0  0  0
  8 11  1  0  0  0  0
  9 15  1  0  0  0  0
 10 14  2  0  0  0  0
 12 13  2  0  0  0  0
 14 15  1  0  0  0  0
 14 18  1  0  0  0  0
 15 16  2  0  0  0  0
 16 17  1  0  0  0  0
 17 18  1  0  0  0  0
 18 19  2  0  0  0  0
 19 20  1  0  0  0  0
 20 21  2  0  0  0  0
 20 25  1  0  0  0  0
 21 24  1  0  0  0  0
 22 23  1  0  0  0  0
 22 24  2  0  0  0  0
 23 25  2  0  0  0  0
 23 26  1  0  0  0  0
  1 27  1  0  0  0  0
  2 28  1  0  0  0  0
  2 29  1  0  0  0  0
  3 30  1  0  0  0  0
  3 31  1  0  0  0  0
  4 32  1  0  0  0  0
  5 33  1  0  0  0  0
  5 34  1  0  0  0  0
  9 35  1  0  0  0  0
  9 36  1  0  0  0  0
 10 37  1  0  0  0  0
 11 38  1  0  0  0  0
 17 39  1  0  0  0  0
 19 40  1  0  0  0  0
 21 41  1  0  0  0  0
 22 42  1  0  0  0  0
 24 43  1  0  0  0  0
 25 44  1  0  0  0  0
 26 45  1  0  0  0  0
 26 46  1  0  0  0  0
 26 47  1  0  0  0  0
M  END
> <Name>
13

> <IC50[uM]>
0.006

$$$$
13
  -OEChem-05192314333D
 Structure written by MMmdl.
 47 50  0     1  0  0  0  0  0999 V2000
   -2.2088   12.9419  -10.9697 C   0  0  1  0  0  0  0  0  0  0  0  0
   -2.1904   14.4671  -10.9424 C   0  0  0  0  0  0  0  0  0  0  0  0
   -3.6992   12.5876  -10.8377 C   0  0  0  0  0  0  0  0  0  0  0  0
   -1.6826   12.4744  -12.1795 O   0  0  0  0  0  0  0  0  0  0  0  0
   -3.5107   14.9139  -11.6089 C   0  0  0  0  0  0  0  0  0  0  0  0
   -4.3443   13.7200  -11.5243 N   0  0  0  0  0  0  0  0  0  0  0  0
   -6.3525   12.3601  -12.0338 C   0  0  0  0  0  0  0  0  0  0  0  0
   -6.9727   11.7556  -13.1375 C   0  0  0  0  0  0  0  0  0  0  0  0
   -7.7097   10.5633  -13.0339 C   0  0  0  0  0  0  0  0  0  0  0  0
   -6.5001   11.8056  -10.7491 C   0  0  0  0  0  0  0  0  0  0  0  0
   -6.8506   12.3073  -14.3824 O   0  0  0  0  0  0  0  0  0  0  0  0
   -5.5377   13.6382  -12.2001 C   0  0  0  0  0  0  0  0  0  0  0  0
   -5.9500   14.5444  -12.9177 O   0  0  0  0  0  0  0  0  0  0  0  0
   -7.2308   10.6159  -10.6131 C   0  0  0  0  0  0  0  0  0  0  0  0
   -7.8083   10.0113  -11.7524 C   0  0  0  0  0  0  0  0  0  0  0  0
   -8.4200    8.8675  -11.2880 N   0  0  0  0  0  0  0  0  0  0  0  0
   -8.2847    8.7400   -9.9757 N   0  0  0  0  0  0  0  0  0  0  0  0
   -7.6047    9.7473   -9.5145 C   0  0  0  0  0  0  0  0  0  0  0  0
   -7.3264    9.8951   -8.0245 C   0  0  0  0  0  0  0  0  0  0  0  0
   -5.9604   10.4805   -7.7353 C   0  0  0  0  0  0  0  0  0  0  0  0
   -4.8075    9.7596   -8.0491 C   0  0  0  0  0  0  0  0  0  0  0  0
   -3.4358   11.5809   -7.2415 C   0  0  0  0  0  0  0  0  0  0  0  0
   -4.5835   12.3061   -6.9225 C   0  0  0  0  0  0  0  0  0  0  0  0
   -3.5481   10.3107   -7.8024 C   0  0  0  0  0  0  0  0  0  0  0  0
   -5.8471   11.7541   -7.1666 C   0  0  0  0  0  0  0  0  0  0  0  0
   -4.4650   13.6954   -6.3241 C   0  0  0  0  0  0  0  0  0  0  0  0
   -1.6558   12.5461  -10.1051 H   0  0  0  0  0  0  0  0  0  0  0  0
   -2.1418   14.8314   -9.9056 H   0  0  0  0  0  0  0  0  0  0  0  0
   -1.3273   14.8503  -11.5065 H   0  0  0  0  0  0  0  0  0  0  0  0
   -3.9292   11.6343  -11.3361 H   0  0  0  0  0  0  0  0  0  0  0  0
   -4.0052   12.5329   -9.7825 H   0  0  0  0  0  0  0  0  0  0  0  0
   -1.6986   11.5246  -12.1863 H   0  0  0  0  0  0  0  0  0  0  0  0
   -3.9654   15.7526  -11.0614 H   0  0  0  0  0  0  0  0  0  0  0  0
   -3.3451   15.2065  -12.6563 H   0  0  0  0  0  0  0  0  0  0  0  0
   -5.4494   11.7544  -12.1998 H   0  0  0  0  0  0  0  0  0  0  0  0
   -8.7298   10.7663  -13.3920 H   0  0  0  0  0  0  0  0  0  0  0  0
   -7.2340    9.8162  -13.6862 H   0  0  0  0  0  0  0  0  0  0  0  0
   -6.0607   12.2852   -9.8870 H   0  0  0  0  0  0  0  0  0  0  0  0
   -8.6485    7.9874   -9.4268 H   0  0  0  0  0  0  0  0  0  0  0  0
   -8.0295    9.6121   -7.2551 H   0  0  0  0  0  0  0  0  0  0  0  0
   -4.8892    8.7741   -8.4833 H   0  0  0  0  0  0  0  0  0  0  0  0
   -2.4600   12.0040   -7.0537 H   0  0  0  0  0  0  0  0  0  0  0  0
   -2.6581    9.7501   -8.0474 H   0  0  0  0  0  0  0  0  0  0  0  0
   -6.7366   12.3128   -6.9153 H   0  0  0  0  0  0  0  0  0  0  0  0
   -4.4364   14.4418   -7.1316 H   0  0  0  0  0  0  0  0  0  0  0  0
   -5.3317   13.8902   -5.6754 H   0  0  0  0  0  0  0  0  0  0  0  0
   -3.5409   13.7615   -5.7311 H   0  0  0  0  0  0  0  0  0  0  0  0
  1  2  1  0  0  0  0
  1  3  1  0  0  0  0
  1  4  1  0  0  0  0
  2  5  1  0  0  0  0
  3  6  1  0  0  0  0
  5  6  1  0  0  0  0
  6 12  1  0  0  0  0
  7  8  1  0  0  0  0
  7 10  1  0  0  0  0
  7 12  1  0  0  0  0
  8  9  1  0  0  0  0
  8 11  2  0  0  0  0
  9 15  1  0  0  0  0
 10 14  2  0  0  0  0
 12 13  2  0  0  0  0
 14 15  1  0  0  0  0
 14 18  1  0  0  0  0
 15 16  2  0  0  0  0
 16 17  1  0  0  0  0
 17 18  1  0  0  0  0
 18 19  2  0  0  0  0
 19 20  1  0  0  0  0
 20 21  2  0  0  0  0
 20 25  1  0  0  0  0
 21 24  1  0  0  0  0
 22 23  1  0  0  0  0
 22 24  2  0  0  0  0
 23 25  2  0  0  0  0
 23 26  1  0  0  0  0
  1 27  1  0  0  0  0
  2 28  1  0  0  0  0
  2 29  1  0  0  0  0
  3 30  1  0  0  0  0
  3 31  1  0  0  0  0
  4 32  1  0  0  0  0
  5 33  1  0  0  0  0
  5 34  1  0  0  0  0
  7 35  1  0  0  0  0
  9 36  1  0  0  0  0
  9 37  1  0  0  0  0
 10 38  1  0  0  0  0
 17 39  1  0  0  0  0
 19 40  1  0  0  0  0
 21 41  1  0  0  0  0
 22 42  1  0  0  0  0
 24 43  1  0  0  0  0
 25 44  1  0  0  0  0
 26 45  1  0  0  0  0
 26 46  1  0  0  0  0
 26 47  1  0  0  0  0
M  END
> <Name>
13

> <IC50[uM]>
0.006

$$$$
13
  -OEChem-05192314333D
 Structure written by MMmdl.
 47 50  0     1  0  0  0  0  0999 V2000
   -2.2088   12.9419  -10.9697 C   0  0  1  0  0  0  0  0  0  0  0  0
   -2.1904   14.4671  -10.9424 C   0  0  0  0  0  0  0  0  0  0  0  0
   -3.6992   12.5876  -10.8377 C   0  0  0  0  0  0  0  0  0  0  0  0
   -1.6826   12.4744  -12.1795 O   0  0  0  0  0  0  0  0  0  0  0  0
   -3.5107   14.9139  -11.6089 C   0  0  0  0  0  0  0  0  0  0  0  0
   -4.3443   13.7200  -11.5243 N   0  0  0  0  0  0  0  0  0  0  0  0
   -6.3525   12.3601  -12.0338 C   0  0  0  0  0  0  0  0  0  0  0  0
   -6.9727   11.7556  -13.1375 C   0  0  0  0  0  0  0  0  0  0  0  0
   -7.7097   10.5633  -13.0339 C   0  0  0  0  0  0  0  0  0  0  0  0
   -6.5001   11.8056  -10.7491 C   0  0  0  0  0  0  0  0  0  0  0  0
   -6.8506   12.3073  -14.3824 O   0  0  0  0  0  0  0  0  0  0  0  0
   -5.5377   13.6382  -12.2001 C   0  0  0  0  0  0  0  0  0  0  0  0
   -5.9500   14.5444  -12.9177 O   0  0  0  0  0  0  0  0  0  0  0  0
   -7.2308   10.6159  -10.6131 C   0  0  0  0  0  0  0  0  0  0  0  0
   -7.8083   10.0113  -11.7524 C   0  0  0  0  0  0  0  0  0  0  0  0
   -8.4200    8.8675  -11.2880 N   0  0  0  0  0  0  0  0  0  0  0  0
   -8.2847    8.7400   -9.9757 N   0  0  0  0  0  0  0  0  0  0  0  0
   -7.6047    9.7473   -9.5145 C   0  0  0  0  0  0  0  0  0  0  0  0
   -7.3264    9.8951   -8.0245 C   0  0  0  0  0  0  0  0  0  0  0  0
   -5.9604   10.4805   -7.7353 C   0  0  0  0  0  0  0  0  0  0  0  0
   -4.8075    9.7596   -8.0491 C   0  0  0  0  0  0  0  0  0  0  0  0
   -3.4358   11.5809   -7.2415 C   0  0  0  0  0  0  0  0  0  0  0  0
   -4.5835   12.3061   -6.9225 C   0  0  0  0  0  0  0  0  0  0  0  0
   -3.5481   10.3107   -7.8024 C   0  0  0  0  0  0  0  0  0  0  0  0
   -5.8471   11.7541   -7.1666 C   0  0  0  0  0  0  0  0  0  0  0  0
   -4.4650   13.6954   -6.3241 C   0  0  0  0  0  0  0  0  0  0  0  0
   -1.6558   12.5461  -10.1051 H   0  0  0  0  0  0  0  0  0  0  0  0
   -2.1418   14.8314   -9.9056 H   0  0  0  0  0  0  0  0  0  0  0  0
   -1.3273   14.8503  -11.5065 H   0  0  0  0  0  0  0  0  0  0  0  0
   -3.9292   11.6343  -11.3361 H   0  0  0  0  0  0  0  0  0  0  0  0
   -4.0052   12.5329   -9.7825 H   0  0  0  0  0  0  0  0  0  0  0  0
   -1.6986   11.5246  -12.1863 H   0  0  0  0  0  0  0  0  0  0  0  0
   -3.9654   15.7526  -11.0614 H   0  0  0  0  0  0  0  0  0  0  0  0
   -3.3451   15.2065  -12.6563 H   0  0  0  0  0  0  0  0  0  0  0  0
   -5.4494   11.7544  -12.1998 H   0  0  0  0  0  0  0  0  0  0  0  0
   -8.1726   10.1006  -13.8930 H   0  0  0  0  0  0  0  0  0  0  0  0
   -6.0607   12.2852   -9.8870 H   0  0  0  0  0  0  0  0  0  0  0  0
   -8.9058    8.2145  -11.8690 H   0  0  0  0  0  0  0  0  0  0  0  0
   -8.0906   10.5553   -7.5885 H   0  0  0  0  0  0  0  0  0  0  0  0
   -7.3891    8.9020   -7.5556 H   0  0  0  0  0  0  0  0  0  0  0  0
   -4.8892    8.7741   -8.4833 H   0  0  0  0  0  0  0  0  0  0  0  0
   -2.4600   12.0040   -7.0537 H   0  0  0  0  0  0  0  0  0  0  0  0
   -2.6581    9.7501   -8.0474 H   0  0  0  0  0  0  0  0  0  0  0  0
   -6.7366   12.3128   -6.9153 H   0  0  0  0  0  0  0  0  0  0  0  0
   -4.4364   14.4418   -7.1316 H   0  0  0  0  0  0  0  0  0  0  0  0
   -5.3317   13.8902   -5.6754 H   0  0  0  0  0  0  0  0  0  0  0  0
   -3.5409   13.7615   -5.7311 H   0  0  0  0  0  0  0  0  0  0  0  0
  1  2  1  0  0  0  0
  1  3  1  0  0  0  0
  1  4  1  0  0  0  0
  2  5  1  0  0  0  0
  3  6  1  0  0  0  0
  5  6  1  0  0  0  0
  6 12  1  0  0  0  0
  7  8  1  0  0  0  0
  7 10  1  0  0  0  0
  7 12  1  0  0  0  0
  8  9  1  0  0  0  0
  8 11  2  0  0  0  0
  9 15  2  0  0  0  0
 10 14  2  0  0  0  0
 12 13  2  0  0  0  0
 14 15  1  0  0  0  0
 14 18  1  0  0  0  0
 15 16  1  0  0  0  0
 16 17  1  0  0  0  0
 17 18  2  0  0  0  0
 18 19  1  0  0  0  0
 19 20  1  0  0  0  0
 20 21  2  0  0  0  0
 20 25  1  0  0  0  0
 21 24  1  0  0  0  0
 22 23  1  0  0  0  0
 22 24  2  0  0  0  0
 23 25  2  0  0  0  0
 23 26  1  0  0  0  0
  1 27  1  0  0  0  0
  2 28  1  0  0  0  0
  2 29  1  0  0  0  0
  3 30  1  0  0  0  0
  3 31  1  0  0  0  0
  4 32  1  0  0  0  0
  5 33  1  0  0  0  0
  5 34  1  0  0  0  0
  7 35  1  0  0  0  0
  9 36  1  0  0  0  0
 10 37  1  0  0  0  0
 16 38  1  0  0  0  0
 19 39  1  0  0  0  0
 19 40  1  0  0  0  0
 21 41  1  0  0  0  0
 22 42  1  0  0  0  0
 24 43  1  0  0  0  0
 25 44  1  0  0  0  0
 26 45  1  0  0  0  0
 26 46  1  0  0  0  0
 26 47  1  0  0  0  0
M  END
> <Name>
13

> <IC50[uM]>
0.006

$$$$
13
  -OEChem-05192314333D
 Structure written by MMmdl.
 47 50  0     1  0  0  0  0  0999 V2000
   -2.2088   12.9419  -10.9697 C   0  0  1  0  0  0  0  0  0  0  0  0
   -2.1904   14.4671  -10.9424 C   0  0  0  0  0  0  0  0  0  0  0  0
   -3.6992   12.5876  -10.8377 C   0  0  0  0  0  0  0  0  0  0  0  0
   -1.6826   12.4744  -12.1795 O   0  0  0  0  0  0  0  0  0  0  0  0
   -3.5107   14.9139  -11.6089 C   0  0  0  0  0  0  0  0  0  0  0  0
   -4.3443   13.7200  -11.5243 N   0  0  0  0  0  0  0  0  0  0  0  0
   -6.3525   12.3601  -12.0338 C   0  0  0  0  0  0  0  0  0  0  0  0
   -6.9727   11.7556  -13.1375 C   0  0  0  0  0  0  0  0  0  0  0  0
   -7.7097   10.5633  -13.0339 C   0  0  0  0  0  0  0  0  0  0  0  0
   -6.5001   11.8056  -10.7491 C   0  0  0  0  0  0  0  0  0  0  0  0
   -6.8506   12.3073  -14.3824 O   0  0  0  0  0  0  0  0  0  0  0  0
   -5.5377   13.6382  -12.2001 C   0  0  0  0  0  0  0  0  0  0  0  0
   -5.9500   14.5444  -12.9177 O   0  0  0  0  0  0  0  0  0  0  0  0
   -7.2308   10.6159  -10.6131 C   0  0  0  0  0  0  0  0  0  0  0  0
   -7.8083   10.0113  -11.7524 C   0  0  0  0  0  0  0  0  0  0  0  0
   -8.4200    8.8675  -11.2880 N   0  0  0  0  0  0  0  0  0  0  0  0
   -8.2847    8.7400   -9.9757 N   0  0  0  0  0  0  0  0  0  0  0  0
   -7.6047    9.7473   -9.5145 C   0  0  0  0  0  0  0  0  0  0  0  0
   -7.3264    9.8951   -8.0245 C   0  0  0  0  0  0  0  0  0  0  0  0
   -5.9604   10.4805   -7.7353 C   0  0  0  0  0  0  0  0  0  0  0  0
   -4.8075    9.7596   -8.0491 C   0  0  0  0  0  0  0  0  0  0  0  0
   -3.4358   11.5809   -7.2415 C   0  0  0  0  0  0  0  0  0  0  0  0
   -4.5835   12.3061   -6.9225 C   0  0  0  0  0  0  0  0  0  0  0  0
   -3.5481   10.3107   -7.8024 C   0  0  0  0  0  0  0  0  0  0  0  0
   -5.8471   11.7541   -7.1666 C   0  0  0  0  0  0  0  0  0  0  0  0
   -4.4650   13.6954   -6.3241 C   0  0  0  0  0  0  0  0  0  0  0  0
   -1.6558   12.5461  -10.1051 H   0  0  0  0  0  0  0  0  0  0  0  0
   -2.1418   14.8314   -9.9056 H   0  0  0  0  0  0  0  0  0  0  0  0
   -1.3273   14.8503  -11.5065 H   0  0  0  0  0  0  0  0  0  0  0  0
   -3.9292   11.6343  -11.3361 H   0  0  0  0  0  0  0  0  0  0  0  0
   -4.0052   12.5329   -9.7825 H   0  0  0  0  0  0  0  0  0  0  0  0
   -1.6986   11.5246  -12.1863 H   0  0  0  0  0  0  0  0  0  0  0  0
   -3.9654   15.7526  -11.0614 H   0  0  0  0  0  0  0  0  0  0  0  0
   -3.3451   15.2065  -12.6563 H   0  0  0  0  0  0  0  0  0  0  0  0
   -5.4494   11.7544  -12.1998 H   0  0  0  0  0  0  0  0  0  0  0  0
   -8.1726   10.1006  -13.8930 H   0  0  0  0  0  0  0  0  0  0  0  0
   -6.0607   12.2852   -9.8870 H   0  0  0  0  0  0  0  0  0  0  0  0
   -6.5242   13.1961  -14.3048 H   0  0  0  0  0  0  0  0  0  0  0  0
   -8.6485    7.9874   -9.4268 H   0  0  0  0  0  0  0  0  0  0  0  0
   -8.0295    9.6121   -7.2551 H   0  0  0  0  0  0  0  0  0  0  0  0
   -4.8892    8.7741   -8.4833 H   0  0  0  0  0  0  0  0  0  0  0  0
   -2.4600   12.0040   -7.0537 H   0  0  0  0  0  0  0  0  0  0  0  0
   -2.6581    9.7501   -8.0474 H   0  0  0  0  0  0  0  0  0  0  0  0
   -6.7366   12.3128   -6.9153 H   0  0  0  0  0  0  0  0  0  0  0  0
   -4.4364   14.4418   -7.1316 H   0  0  0  0  0  0  0  0  0  0  0  0
   -5.3317   13.8902   -5.6754 H   0  0  0  0  0  0  0  0  0  0  0  0
   -3.5409   13.7615   -5.7311 H   0  0  0  0  0  0  0  0  0  0  0  0
  1  2  1  0  0  0  0
  1  3  1  0  0  0  0
  1  4  1  0  0  0  0
  2  5  1  0  0  0  0
  3  6  1  0  0  0  0
  5  6  1  0  0  0  0
  6 12  1  0  0  0  0
  7  8  1  0  0  0  0
  7 10  1  0  0  0  0
  7 12  1  0  0  0  0
  8  9  2  0  0  0  0
  8 11  1  0  0  0  0
  9 15  1  0  0  0  0
 10 14  2  0  0  0  0
 12 13  2  0  0  0  0
 14 15  1  0  0  0  0
 14 18  1  0  0  0  0
 15 16  2  0  0  0  0
 16 17  1  0  0  0  0
 17 18  1  0  0  0  0
 18 19  2  0  0  0  0
 19 20  1  0  0  0  0
 20 21  2  0  0  0  0
 20 25  1  0  0  0  0
 21 24  1  0  0  0  0
 22 23  1  0  0  0  0
 22 24  2  0  0  0  0
 23 25  2  0  0  0  0
 23 26  1  0  0  0  0
  1 27  1  0  0  0  0
  2 28  1  0  0  0  0
  2 29  1  0  0  0  0
  3 30  1  0  0  0  0
  3 31  1  0  0  0  0
  4 32  1  0  0  0  0
  5 33  1  0  0  0  0
  5 34  1  0  0  0  0
  7 35  1  0  0  0  0
  9 36  1  0  0  0  0
 10 37  1  0  0  0  0
 11 38  1  0  0  0  0
 17 39  1  0  0  0  0
 19 40  1  0  0  0  0
 21 41  1  0  0  0  0
 22 42  1  0  0  0  0
 24 43  1  0  0  0  0
 25 44  1  0  0  0  0
 26 45  1  0  0  0  0
 26 46  1  0  0  0  0
 26 47  1  0  0  0  0
M  END
> <Name>
13

> <IC50[uM]>
0.006

$$$$
13
  -OEChem-05192314333D
 Structure written by MMmdl.
 47 50  0     1  0  0  0  0  0999 V2000
   -2.2088   12.9419  -10.9697 C   0  0  1  0  0  0  0  0  0  0  0  0
   -2.1904   14.4671  -10.9424 C   0  0  0  0  0  0  0  0  0  0  0  0
   -3.6992   12.5876  -10.8377 C   0  0  0  0  0  0  0  0  0  0  0  0
   -1.6826   12.4744  -12.1795 O   0  0  0  0  0  0  0  0  0  0  0  0
   -3.5107   14.9139  -11.6089 C   0  0  0  0  0  0  0  0  0  0  0  0
   -4.3443   13.7200  -11.5243 N   0  0  0  0  0  0  0  0  0  0  0  0
   -6.3525   12.3601  -12.0338 C   0  0  0  0  0  0  0  0  0  0  0  0
   -6.9727   11.7556  -13.1375 C   0  0  0  0  0  0  0  0  0  0  0  0
   -7.7097   10.5633  -13.0339 C   0  0  0  0  0  0  0  0  0  0  0  0
   -6.5001   11.8056  -10.7491 C   0  0  0  0  0  0  0  0  0  0  0  0
   -6.8506   12.3073  -14.3824 O   0  0  0  0  0  0  0  0  0  0  0  0
   -5.5377   13.6382  -12.2001 C   0  0  0  0  0  0  0  0  0  0  0  0
   -5.9500   14.5444  -12.9177 O   0  0  0  0  0  0  0  0  0  0  0  0
   -7.2308   10.6159  -10.6131 C   0  0  0  0  0  0  0  0  0  0  0  0
   -7.8083   10.0113  -11.7524 C   0  0  0  0  0  0  0  0  0  0  0  0
   -8.4200    8.8675  -11.2880 N   0  0  0  0  0  0  0  0  0  0  0  0
   -8.2847    8.7400   -9.9757 N   0  0  0  0  0  0  0  0  0  0  0  0
   -7.6047    9.7473   -9.5145 C   0  0  0  0  0  0  0  0  0  0  0  0
   -7.3264    9.8951   -8.0245 C   0  0  0  0  0  0  0  0  0  0  0  0
   -5.9604   10.4805   -7.7353 C   0  0  0  0  0  0  0  0  0  0  0  0
   -4.8075    9.7596   -8.0491 C   0  0  0  0  0  0  0  0  0  0  0  0
   -3.4358   11.5809   -7.2415 C   0  0  0  0  0  0  0  0  0  0  0  0
   -4.5835   12.3061   -6.9225 C   0  0  0  0  0  0  0  0  0  0  0  0
   -3.5481   10.3107   -7.8024 C   0  0  0  0  0  0  0  0  0  0  0  0
   -5.8471   11.7541   -7.1666 C   0  0  0  0  0  0  0  0  0  0  0  0
   -4.4650   13.6954   -6.3241 C   0  0  0  0  0  0  0  0  0  0  0  0
   -1.6558   12.5461  -10.1051 H   0  0  0  0  0  0  0  0  0  0  0  0
   -2.1418   14.8314   -9.9056 H   0  0  0  0  0  0  0  0  0  0  0  0
   -1.3273   14.8503  -11.5065 H   0  0  0  0  0  0  0  0  0  0  0  0
   -3.9292   11.6343  -11.3361 H   0  0  0  0  0  0  0  0  0  0  0  0
   -4.0052   12.5329   -9.7825 H   0  0  0  0  0  0  0  0  0  0  0  0
   -1.6986   11.5246  -12.1863 H   0  0  0  0  0  0  0  0  0  0  0  0
   -3.9654   15.7526  -11.0614 H   0  0  0  0  0  0  0  0  0  0  0  0
   -3.3451   15.2065  -12.6563 H   0  0  0  0  0  0  0  0  0  0  0  0
   -8.1726   10.1006  -13.8930 H   0  0  0  0  0  0  0  0  0  0  0  0
   -6.0607   12.2852   -9.8870 H   0  0  0  0  0  0  0  0  0  0  0  0
   -6.5242   13.1961  -14.3048 H   0  0  0  0  0  0  0  0  0  0  0  0
   -8.9058    8.2145  -11.8690 H   0  0  0  0  0  0  0  0  0  0  0  0
   -8.0295    9.6121   -7.2551 H   0  0  0  0  0  0  0  0  0  0  0  0
   -4.8582    8.8181   -7.4825 H   0  0  0  0  0  0  0  0  0  0  0  0
   -4.8529    9.5421   -9.1264 H   0  0  0  0  0  0  0  0  0  0  0  0
   -2.4600   12.0040   -7.0537 H   0  0  0  0  0  0  0  0  0  0  0  0
   -2.6581    9.7501   -8.0474 H   0  0  0  0  0  0  0  0  0  0  0  0
   -6.7366   12.3128   -6.9153 H   0  0  0  0  0  0  0  0  0  0  0  0
   -5.4700   14.1039   -6.1424 H   0  0  0  0  0  0  0  0  0  0  0  0
   -3.9148   13.6392   -5.3732 H   0  0  0  0  0  0  0  0  0  0  0  0
   -3.9239   14.3505   -7.0227 H   0  0  0  0  0  0  0  0  0  0  0  0
  1  2  1  0  0  0  0
  1  3  1  0  0  0  0
  1  4  1  0  0  0  0
  2  5  1  0  0  0  0
  3  6  1  0  0  0  0
  5  6  1  0  0  0  0
  6 12  1  0  0  0  0
  7  8  2  0  0  0  0
  7 10  1  0  0  0  0
  7 12  1  0  0  0  0
  8  9  1  0  0  0  0
  8 11  1  0  0  0  0
  9 15  2  0  0  0  0
 10 14  2  0  0  0  0
 12 13  2  0  0  0  0
 14 15  1  0  0  0  0
 14 18  1  0  0  0  0
 15 16  1  0  0  0  0
 16 17  1  0  0  0  0
 17 18  2  0  0  0  0
 18 19  1  0  0  0  0
 19 20  2  0  0  0  0
 20 21  1  0  0  0  0
 20 25  1  0  0  0  0
 21 24  1  0  0  0  0
 22 23  1  0  0  0  0
 22 24  2  0  0  0  0
 23 25  2  0  0  0  0
 23 26  1  0  0  0  0
  1 27  1  0  0  0  0
  2 28  1  0  0  0  0
  2 29  1  0  0  0  0
  3 30  1  0  0  0  0
  3 31  1  0  0  0  0
  4 32  1  0  0  0  0
  5 33  1  0  0  0  0
  5 34  1  0  0  0  0
  9 35  1  0  0  0  0
 10 36  1  0  0  0  0
 11 37  1  0  0  0  0
 16 38  1  0  0  0  0
 19 39  1  0  0  0  0
 21 40  1  0  0  0  0
 21 41  1  0  0  0  0
 22 42  1  0  0  0  0
 24 43  1  0  0  0  0
 25 44  1  0  0  0  0
 26 45  1  0  0  0  0
 26 46  1  0  0  0  0
 26 47  1  0  0  0  0
M  END
> <Name>
13

> <IC50[uM]>
0.006

$$$$
13
  -OEChem-05192314333D
 Structure written by MMmdl.
 47 50  0     1  0  0  0  0  0999 V2000
   -2.2088   12.9419  -10.9697 C   0  0  1  0  0  0  0  0  0  0  0  0
   -2.1904   14.4671  -10.9424 C   0  0  0  0  0  0  0  0  0  0  0  0
   -3.6992   12.5876  -10.8377 C   0  0  0  0  0  0  0  0  0  0  0  0
   -1.6826   12.4744  -12.1795 O   0  0  0  0  0  0  0  0  0  0  0  0
   -3.5107   14.9139  -11.6089 C   0  0  0  0  0  0  0  0  0  0  0  0
   -4.3443   13.7200  -11.5243 N   0  0  0  0  0  0  0  0  0  0  0  0
   -6.3525   12.3601  -12.0338 C   0  0  0  0  0  0  0  0  0  0  0  0
   -6.9727   11.7556  -13.1375 C   0  0  0  0  0  0  0  0  0  0  0  0
   -7.7097   10.5633  -13.0339 C   0  0  0  0  0  0  0  0  0  0  0  0
   -6.5001   11.8056  -10.7491 C   0  0  0  0  0  0  0  0  0  0  0  0
   -6.8506   12.3073  -14.3824 O   0  0  0  0  0  0  0  0  0  0  0  0
   -5.5377   13.6382  -12.2001 C   0  0  0  0  0  0  0  0  0  0  0  0
   -5.9500   14.5444  -12.9177 O   0  0  0  0  0  0  0  0  0  0  0  0
   -7.2308   10.6159  -10.6131 C   0  0  0  0  0  0  0  0  0  0  0  0
   -7.8083   10.0113  -11.7524 C   0  0  0  0  0  0  0  0  0  0  0  0
   -8.4200    8.8675  -11.2880 N   0  0  0  0  0  0  0  0  0  0  0  0
   -8.2847    8.7400   -9.9757 N   0  0  0  0  0  0  0  0  0  0  0  0
   -7.6047    9.7473   -9.5145 C   0  0  0  0  0  0  0  0  0  0  0  0
   -7.3264    9.8951   -8.0245 C   0  0  0  0  0  0  0  0  0  0  0  0
   -5.9604   10.4805   -7.7353 C   0  0  0  0  0  0  0  0  0  0  0  0
   -4.8075    9.7596   -8.0491 C   0  0  0  0  0  0  0  0  0  0  0  0
   -3.4358   11.5809   -7.2415 C   0  0  0  0  0  0  0  0  0  0  0  0
   -4.5835   12.3061   -6.9225 C   0  0  0  0  0  0  0  0  0  0  0  0
   -3.5481   10.3107   -7.8024 C   0  0  0  0  0  0  0  0  0  0  0  0
   -5.8471   11.7541   -7.1666 C   0  0  0  0  0  0  0  0  0  0  0  0
   -4.4650   13.6954   -6.3241 C   0  0  0  0  0  0  0  0  0  0  0  0
   -1.6558   12.5461  -10.1051 H   0  0  0  0  0  0  0  0  0  0  0  0
   -2.1418   14.8314   -9.9056 H   0  0  0  0  0  0  0  0  0  0  0  0
   -1.3273   14.8503  -11.5065 H   0  0  0  0  0  0  0  0  0  0  0  0
   -3.9292   11.6343  -11.3361 H   0  0  0  0  0  0  0  0  0  0  0  0
   -4.0052   12.5329   -9.7825 H   0  0  0  0  0  0  0  0  0  0  0  0
   -1.6986   11.5246  -12.1863 H   0  0  0  0  0  0  0  0  0  0  0  0
   -3.9654   15.7526  -11.0614 H   0  0  0  0  0  0  0  0  0  0  0  0
   -3.3451   15.2065  -12.6563 H   0  0  0  0  0  0  0  0  0  0  0  0
   -8.1726   10.1006  -13.8930 H   0  0  0  0  0  0  0  0  0  0  0  0
   -6.0607   12.2852   -9.8870 H   0  0  0  0  0  0  0  0  0  0  0  0
   -6.5242   13.1961  -14.3048 H   0  0  0  0  0  0  0  0  0  0  0  0
   -8.9058    8.2145  -11.8690 H   0  0  0  0  0  0  0  0  0  0  0  0
   -8.0295    9.6121   -7.2551 H   0  0  0  0  0  0  0  0  0  0  0  0
   -4.8892    8.7741   -8.4833 H   0  0  0  0  0  0  0  0  0  0  0  0
   -2.8612   12.1924   -7.9527 H   0  0  0  0  0  0  0  0  0  0  0  0
   -2.8628   11.4670   -6.3094 H   0  0  0  0  0  0  0  0  0  0  0  0
   -2.6581    9.7501   -8.0474 H   0  0  0  0  0  0  0  0  0  0  0  0
   -6.7366   12.3128   -6.9153 H   0  0  0  0  0  0  0  0  0  0  0  0
   -5.4700   14.1039   -6.1424 H   0  0  0  0  0  0  0  0  0  0  0  0
   -3.9148   13.6392   -5.3732 H   0  0  0  0  0  0  0  0  0  0  0  0
   -3.9239   14.3505   -7.0227 H   0  0  0  0  0  0  0  0  0  0  0  0
  1  2  1  0  0  0  0
  1  3  1  0  0  0  0
  1  4  1  0  0  0  0
  2  5  1  0  0  0  0
  3  6  1  0  0  0  0
  5  6  1  0  0  0  0
  6 12  1  0  0  0  0
  7  8  2  0  0  0  0
  7 10  1  0  0  0  0
  7 12  1  0  0  0  0
  8  9  1  0  0  0  0
  8 11  1  0  0  0  0
  9 15  2  0  0  0  0
 10 14  2  0  0  0  0
 12 13  2  0  0  0  0
 14 15  1  0  0  0  0
 14 18  1  0  0  0  0
 15 16  1  0  0  0  0
 16 17  1  0  0  0  0
 17 18  2  0  0  0  0
 18 19  1  0  0  0  0
 19 20  2  0  0  0  0
 20 21  1  0  0  0  0
 20 25  1  0  0  0  0
 21 24  2  0  0  0  0
 22 23  1  0  0  0  0
 22 24  1  0  0  0  0
 23 25  2  0  0  0  0
 23 26  1  0  0  0  0
  1 27  1  0  0  0  0
  2 28  1  0  0  0  0
  2 29  1  0  0  0  0
  3 30  1  0  0  0  0
  3 31  1  0  0  0  0
  4 32  1  0  0  0  0
  5 33  1  0  0  0  0
  5 34  1  0  0  0  0
  9 35  1  0  0  0  0
 10 36  1  0  0  0  0
 11 37  1  0  0  0  0
 16 38  1  0  0  0  0
 19 39  1  0  0  0  0
 21 40  1  0  0  0  0
 22 41  1  0  0  0  0
 22 42  1  0  0  0  0
 24 43  1  0  0  0  0
 25 44  1  0  0  0  0
 26 45  1  0  0  0  0
 26 46  1  0  0  0  0
 26 47  1  0  0  0  0
M  END
> <Name>
13

> <IC50[uM]>
0.006

$$$$
13
  -OEChem-05192314333D
 Structure written by MMmdl.
 47 50  0     1  0  0  0  0  0999 V2000
   -2.2088   12.9419  -10.9697 C   0  0  1  0  0  0  0  0  0  0  0  0
   -2.1904   14.4671  -10.9424 C   0  0  0  0  0  0  0  0  0  0  0  0
   -3.6992   12.5876  -10.8377 C   0  0  0  0  0  0  0  0  0  0  0  0
   -1.6826   12.4744  -12.1795 O   0  0  0  0  0  0  0  0  0  0  0  0
   -3.5107   14.9139  -11.6089 C   0  0  0  0  0  0  0  0  0  0  0  0
   -4.3443   13.7200  -11.5243 N   0  0  0  0  0  0  0  0  0  0  0  0
   -6.3525   12.3601  -12.0338 C   0  0  0  0  0  0  0  0  0  0  0  0
   -6.9727   11.7556  -13.1375 C   0  0  0  0  0  0  0  0  0  0  0  0
   -7.7097   10.5633  -13.0339 C   0  0  0  0  0  0  0  0  0  0  0  0
   -6.5001   11.8056  -10.7491 C   0  0  0  0  0  0  0  0  0  0  0  0
   -6.8506   12.3073  -14.3824 O   0  0  0  0  0  0  0  0  0  0  0  0
   -5.5377   13.6382  -12.2001 C   0  0  0  0  0  0  0  0  0  0  0  0
   -5.9500   14.5444  -12.9177 O   0  0  0  0  0  0  0  0  0  0  0  0
   -7.2308   10.6159  -10.6131 C   0  0  0  0  0  0  0  0  0  0  0  0
   -7.8083   10.0113  -11.7524 C   0  0  0  0  0  0  0  0  0  0  0  0
   -8.4200    8.8675  -11.2880 N   0  0  0  0  0  0  0  0  0  0  0  0
   -8.2847    8.7400   -9.9757 N   0  0  0  0  0  0  0  0  0  0  0  0
   -7.6047    9.7473   -9.5145 C   0  0  0  0  0  0  0  0  0  0  0  0
   -7.3264    9.8951   -8.0245 C   0  0  0  0  0  0  0  0  0  0  0  0
   -5.9604   10.4805   -7.7353 C   0  0  0  0  0  0  0  0  0  0  0  0
   -4.8075    9.7596   -8.0491 C   0  0  0  0  0  0  0  0  0  0  0  0
   -3.4358   11.5809   -7.2415 C   0  0  0  0  0  0  0  0  0  0  0  0
   -4.5835   12.3061   -6.9225 C   0  0  0  0  0  0  0  0  0  0  0  0
   -3.5481   10.3107   -7.8024 C   0  0  0  0  0  0  0  0  0  0  0  0
   -5.8471   11.7541   -7.1666 C   0  0  0  0  0  0  0  0  0  0  0  0
   -4.4650   13.6954   -6.3241 C   0  0  0  0  0  0  0  0  0  0  0  0
   -1.6558   12.5461  -10.1051 H   0  0  0  0  0  0  0  0  0  0  0  0
   -2.1418   14.8314   -9.9056 H   0  0  0  0  0  0  0  0  0  0  0  0
   -1.3273   14.8503  -11.5065 H   0  0  0  0  0  0  0  0  0  0  0  0
   -3.9292   11.6343  -11.3361 H   0  0  0  0  0  0  0  0  0  0  0  0
   -4.0052   12.5329   -9.7825 H   0  0  0  0  0  0  0  0  0  0  0  0
   -1.6986   11.5246  -12.1863 H   0  0  0  0  0  0  0  0  0  0  0  0
   -3.9654   15.7526  -11.0614 H   0  0  0  0  0  0  0  0  0  0  0  0
   -3.3451   15.2065  -12.6563 H   0  0  0  0  0  0  0  0  0  0  0  0
   -8.1726   10.1006  -13.8930 H   0  0  0  0  0  0  0  0  0  0  0  0
   -6.0607   12.2852   -9.8870 H   0  0  0  0  0  0  0  0  0  0  0  0
   -6.5242   13.1961  -14.3048 H   0  0  0  0  0  0  0  0  0  0  0  0
   -8.9058    8.2145  -11.8690 H   0  0  0  0  0  0  0  0  0  0  0  0
   -8.0295    9.6121   -7.2551 H   0  0  0  0  0  0  0  0  0  0  0  0
   -4.8892    8.7741   -8.4833 H   0  0  0  0  0  0  0  0  0  0  0  0
   -2.4600   12.0040   -7.0537 H   0  0  0  0  0  0  0  0  0  0  0  0
   -2.6581    9.7501   -8.0474 H   0  0  0  0  0  0  0  0  0  0  0  0
   -6.3717   12.4489   -7.8389 H   0  0  0  0  0  0  0  0  0  0  0  0
   -6.3685   11.7163   -6.1988 H   0  0  0  0  0  0  0  0  0  0  0  0
   -5.4700   14.1039   -6.1424 H   0  0  0  0  0  0  0  0  0  0  0  0
   -3.9148   13.6392   -5.3732 H   0  0  0  0  0  0  0  0  0  0  0  0
   -3.9239   14.3505   -7.0227 H   0  0  0  0  0  0  0  0  0  0  0  0
  1  2  1  0  0  0  0
  1  3  1  0  0  0  0
  1  4  1  0  0  0  0
  2  5  1  0  0  0  0
  3  6  1  0  0  0  0
  5  6  1  0  0  0  0
  6 12  1  0  0  0  0
  7  8  2  0  0  0  0
  7 10  1  0  0  0  0
  7 12  1  0  0  0  0
  8  9  1  0  0  0  0
  8 11  1  0  0  0  0
  9 15  2  0  0  0  0
 10 14  2  0  0  0  0
 12 13  2  0  0  0  0
 14 15  1  0  0  0  0
 14 18  1  0  0  0  0
 15 16  1  0  0  0  0
 16 17  1  0  0  0  0
 17 18  2  0  0  0  0
 18 19  1  0  0  0  0
 19 20  2  0  0  0  0
 20 21  1  0  0  0  0
 20 25  1  0  0  0  0
 21 24  2  0  0  0  0
 22 23  2  0  0  0  0
 22 24  1  0  0  0  0
 23 25  1  0  0  0  0
 23 26  1  0  0  0  0
  1 27  1  0  0  0  0
  2 28  1  0  0  0  0
  2 29  1  0  0  0  0
  3 30  1  0  0  0  0
  3 31  1  0  0  0  0
  4 32  1  0  0  0  0
  5 33  1  0  0  0  0
  5 34  1  0  0  0  0
  9 35  1  0  0  0  0
 10 36  1  0  0  0  0
 11 37  1  0  0  0  0
 16 38  1  0  0  0  0
 19 39  1  0  0  0  0
 21 40  1  0  0  0  0
 22 41  1  0  0  0  0
 24 42  1  0  0  0  0
 25 43  1  0  0  0  0
 25 44  1  0  0  0  0
 26 45  1  0  0  0  0
 26 46  1  0  0  0  0
 26 47  1  0  0  0  0
M  END
> <Name>
13

> <IC50[uM]>
0.006

$$$$
13
  -OEChem-05192314333D
 Structure written by MMmdl.
 47 50  0     1  0  0  0  0  0999 V2000
   -2.2088   12.9419  -10.9697 C   0  0  1  0  0  0  0  0  0  0  0  0
   -2.1904   14.4671  -10.9424 C   0  0  0  0  0  0  0  0  0  0  0  0
   -3.6992   12.5876  -10.8377 C   0  0  0  0  0  0  0  0  0  0  0  0
   -1.6826   12.4744  -12.1795 O   0  0  0  0  0  0  0  0  0  0  0  0
   -3.5107   14.9139  -11.6089 C   0  0  0  0  0  0  0  0  0  0  0  0
   -4.3443   13.7200  -11.5243 N   0  0  0  0  0  0  0  0  0  0  0  0
   -6.3525   12.3601  -12.0338 C   0  0  0  0  0  0  0  0  0  0  0  0
   -6.9727   11.7556  -13.1375 C   0  0  0  0  0  0  0  0  0  0  0  0
   -7.7097   10.5633  -13.0339 C   0  0  0  0  0  0  0  0  0  0  0  0
   -6.5001   11.8056  -10.7491 C   0  0  0  0  0  0  0  0  0  0  0  0
   -6.8506   12.3073  -14.3824 O   0  0  0  0  0  0  0  0  0  0  0  0
   -5.5377   13.6382  -12.2001 C   0  0  0  0  0  0  0  0  0  0  0  0
   -5.9500   14.5444  -12.9177 O   0  0  0  0  0  0  0  0  0  0  0  0
   -7.2308   10.6159  -10.6131 C   0  0  0  0  0  0  0  0  0  0  0  0
   -7.8083   10.0113  -11.7524 C   0  0  0  0  0  0  0  0  0  0  0  0
   -8.4200    8.8675  -11.2880 N   0  0  0  0  0  0  0  0  0  0  0  0
   -8.2847    8.7400   -9.9757 N   0  0  0  0  0  0  0  0  0  0  0  0
   -7.6047    9.7473   -9.5145 C   0  0  0  0  0  0  0  0  0  0  0  0
   -7.3264    9.8951   -8.0245 C   0  0  0  0  0  0  0  0  0  0  0  0
   -5.9604   10.4805   -7.7353 C   0  0  0  0  0  0  0  0  0  0  0  0
   -4.8075    9.7596   -8.0491 C   0  0  0  0  0  0  0  0  0  0  0  0
   -3.4358   11.5809   -7.2415 C   0  0  0  0  0  0  0  0  0  0  0  0
   -4.5835   12.3061   -6.9225 C   0  0  0  0  0  0  0  0  0  0  0  0
   -3.5481   10.3107   -7.8024 C   0  0  0  0  0  0  0  0  0  0  0  0
   -5.8471   11.7541   -7.1666 C   0  0  0  0  0  0  0  0  0  0  0  0
   -4.4650   13.6954   -6.3241 C   0  0  0  0  0  0  0  0  0  0  0  0
   -1.6558   12.5461  -10.1051 H   0  0  0  0  0  0  0  0  0  0  0  0
   -2.1418   14.8314   -9.9056 H   0  0  0  0  0  0  0  0  0  0  0  0
   -1.3273   14.8503  -11.5065 H   0  0  0  0  0  0  0  0  0  0  0  0
   -3.9292   11.6343  -11.3361 H   0  0  0  0  0  0  0  0  0  0  0  0
   -4.0052   12.5329   -9.7825 H   0  0  0  0  0  0  0  0  0  0  0  0
   -1.6986   11.5246  -12.1863 H   0  0  0  0  0  0  0  0  0  0  0  0
   -3.9654   15.7526  -11.0614 H   0  0  0  0  0  0  0  0  0  0  0  0
   -3.3451   15.2065  -12.6563 H   0  0  0  0  0  0  0  0  0  0  0  0
   -8.1726   10.1006  -13.8930 H   0  0  0  0  0  0  0  0  0  0  0  0
   -6.0607   12.2852   -9.8870 H   0  0  0  0  0  0  0  0  0  0  0  0
   -6.5242   13.1961  -14.3048 H   0  0  0  0  0  0  0  0  0  0  0  0
   -8.6485    7.9874   -9.4268 H   0  0  0  0  0  0  0  0  0  0  0  0
   -8.0295    9.6121   -7.2551 H   0  0  0  0  0  0  0  0  0  0  0  0
   -4.8582    8.8181   -7.4825 H   0  0  0  0  0  0  0  0  0  0  0  0
   -4.8529    9.5421   -9.1264 H   0  0  0  0  0  0  0  0  0  0  0  0
   -2.4600   12.0040   -7.0537 H   0  0  0  0  0  0  0  0  0  0  0  0
   -2.6581    9.7501   -8.0474 H   0  0  0  0  0  0  0  0  0  0  0  0
   -6.7366   12.3128   -6.9153 H   0  0  0  0  0  0  0  0  0  0  0  0
   -5.4700   14.1039   -6.1424 H   0  0  0  0  0  0  0  0  0  0  0  0
   -3.9148   13.6392   -5.3732 H   0  0  0  0  0  0  0  0  0  0  0  0
   -3.9239   14.3505   -7.0227 H   0  0  0  0  0  0  0  0  0  0  0  0
  1  2  1  0  0  0  0
  1  3  1  0  0  0  0
  1  4  1  0  0  0  0
  2  5  1  0  0  0  0
  3  6  1  0  0  0  0
  5  6  1  0  0  0  0
  6 12  1  0  0  0  0
  7  8  1  0  0  0  0
  7 10  2  0  0  0  0
  7 12  1  0  0  0  0
  8  9  2  0  0  0  0
  8 11  1  0  0  0  0
  9 15  1  0  0  0  0
 10 14  1  0  0  0  0
 12 13  2  0  0  0  0
 14 15  1  0  0  0  0
 14 18  2  0  0  0  0
 15 16  2  0  0  0  0
 16 17  1  0  0  0  0
 17 18  1  0  0  0  0
 18 19  1  0  0  0  0
 19 20  2  0  0  0  0
 20 21  1  0  0  0  0
 20 25  1  0  0  0  0
 21 24  1  0  0  0  0
 22 23  1  0  0  0  0
 22 24  2  0  0  0  0
 23 25  2  0  0  0  0
 23 26  1  0  0  0  0
  1 27  1  0  0  0  0
  2 28  1  0  0  0  0
  2 29  1  0  0  0  0
  3 30  1  0  0  0  0
  3 31  1  0  0  0  0
  4 32  1  0  0  0  0
  5 33  1  0  0  0  0
  5 34  1  0  0  0  0
  9 35  1  0  0  0  0
 10 36  1  0  0  0  0
 11 37  1  0  0  0  0
 17 38  1  0  0  0  0
 19 39  1  0  0  0  0
 21 40  1  0  0  0  0
 21 41  1  0  0  0  0
 22 42  1  0  0  0  0
 24 43  1  0  0  0  0
 25 44  1  0  0  0  0
 26 45  1  0  0  0  0
 26 46  1  0  0  0  0
 26 47  1  0  0  0  0
M  END
> <Name>
13

> <IC50[uM]>
0.006

$$$$
13
  -OEChem-05192314333D
 Structure written by MMmdl.
 47 50  0     1  0  0  0  0  0999 V2000
   -2.2088   12.9419  -10.9697 C   0  0  1  0  0  0  0  0  0  0  0  0
   -2.1904   14.4671  -10.9424 C   0  0  0  0  0  0  0  0  0  0  0  0
   -3.6992   12.5876  -10.8377 C   0  0  0  0  0  0  0  0  0  0  0  0
   -1.6826   12.4744  -12.1795 O   0  0  0  0  0  0  0  0  0  0  0  0
   -3.5107   14.9139  -11.6089 C   0  0  0  0  0  0  0  0  0  0  0  0
   -4.3443   13.7200  -11.5243 N   0  0  0  0  0  0  0  0  0  0  0  0
   -6.3525   12.3601  -12.0338 C   0  0  0  0  0  0  0  0  0  0  0  0
   -6.9727   11.7556  -13.1375 C   0  0  0  0  0  0  0  0  0  0  0  0
   -7.7097   10.5633  -13.0339 C   0  0  0  0  0  0  0  0  0  0  0  0
   -6.5001   11.8056  -10.7491 C   0  0  0  0  0  0  0  0  0  0  0  0
   -6.8506   12.3073  -14.3824 O   0  0  0  0  0  0  0  0  0  0  0  0
   -5.5377   13.6382  -12.2001 C   0  0  0  0  0  0  0  0  0  0  0  0
   -5.9500   14.5444  -12.9177 O   0  0  0  0  0  0  0  0  0  0  0  0
   -7.2308   10.6159  -10.6131 C   0  0  0  0  0  0  0  0  0  0  0  0
   -7.8083   10.0113  -11.7524 C   0  0  0  0  0  0  0  0  0  0  0  0
   -8.4200    8.8675  -11.2880 N   0  0  0  0  0  0  0  0  0  0  0  0
   -8.2847    8.7400   -9.9757 N   0  0  0  0  0  0  0  0  0  0  0  0
   -7.6047    9.7473   -9.5145 C   0  0  0  0  0  0  0  0  0  0  0  0
   -7.3264    9.8951   -8.0245 C   0  0  0  0  0  0  0  0  0  0  0  0
   -5.9604   10.4805   -7.7353 C   0  0  0  0  0  0  0  0  0  0  0  0
   -4.8075    9.7596   -8.0491 C   0  0  0  0  0  0  0  0  0  0  0  0
   -3.4358   11.5809   -7.2415 C   0  0  0  0  0  0  0  0  0  0  0  0
   -4.5835   12.3061   -6.9225 C   0  0  0  0  0  0  0  0  0  0  0  0
   -3.5481   10.3107   -7.8024 C   0  0  0  0  0  0  0  0  0  0  0  0
   -5.8471   11.7541   -7.1666 C   0  0  0  0  0  0  0  0  0  0  0  0
   -4.4650   13.6954   -6.3241 C   0  0  0  0  0  0  0  0  0  0  0  0
   -1.6558   12.5461  -10.1051 H   0  0  0  0  0  0  0  0  0  0  0  0
   -2.1418   14.8314   -9.9056 H   0  0  0  0  0  0  0  0  0  0  0  0
   -1.3273   14.8503  -11.5065 H   0  0  0  0  0  0  0  0  0  0  0  0
   -3.9292   11.6343  -11.3361 H   0  0  0  0  0  0  0  0  0  0  0  0
   -4.0052   12.5329   -9.7825 H   0  0  0  0  0  0  0  0  0  0  0  0
   -1.6986   11.5246  -12.1863 H   0  0  0  0  0  0  0  0  0  0  0  0
   -3.9654   15.7526  -11.0614 H   0  0  0  0  0  0  0  0  0  0  0  0
   -3.3451   15.2065  -12.6563 H   0  0  0  0  0  0  0  0  0  0  0  0
   -8.1726   10.1006  -13.8930 H   0  0  0  0  0  0  0  0  0  0  0  0
   -6.0607   12.2852   -9.8870 H   0  0  0  0  0  0  0  0  0  0  0  0
   -6.5242   13.1961  -14.3048 H   0  0  0  0  0  0  0  0  0  0  0  0
   -8.6485    7.9874   -9.4268 H   0  0  0  0  0  0  0  0  0  0  0  0
   -8.0295    9.6121   -7.2551 H   0  0  0  0  0  0  0  0  0  0  0  0
   -4.8892    8.7741   -8.4833 H   0  0  0  0  0  0  0  0  0  0  0  0
   -2.8612   12.1924   -7.9527 H   0  0  0  0  0  0  0  0  0  0  0  0
   -2.8628   11.4670   -6.3094 H   0  0  0  0  0  0  0  0  0  0  0  0
   -2.6581    9.7501   -8.0474 H   0  0  0  0  0  0  0  0  0  0  0  0
   -6.7366   12.3128   -6.9153 H   0  0  0  0  0  0  0  0  0  0  0  0
   -5.4700   14.1039   -6.1424 H   0  0  0  0  0  0  0  0  0  0  0  0
   -3.9148   13.6392   -5.3732 H   0  0  0  0  0  0  0  0  0  0  0  0
   -3.9239   14.3505   -7.0227 H   0  0  0  0  0  0  0  0  0  0  0  0
  1  2  1  0  0  0  0
  1  3  1  0  0  0  0
  1  4  1  0  0  0  0
  2  5  1  0  0  0  0
  3  6  1  0  0  0  0
  5  6  1  0  0  0  0
  6 12  1  0  0  0  0
  7  8  1  0  0  0  0
  7 10  2  0  0  0  0
  7 12  1  0  0  0  0
  8  9  2  0  0  0  0
  8 11  1  0  0  0  0
  9 15  1  0  0  0  0
 10 14  1  0  0  0  0
 12 13  2  0  0  0  0
 14 15  1  0  0  0  0
 14 18  2  0  0  0  0
 15 16  2  0  0  0  0
 16 17  1  0  0  0  0
 17 18  1  0  0  0  0
 18 19  1  0  0  0  0
 19 20  2  0  0  0  0
 20 21  1  0  0  0  0
 20 25  1  0  0  0  0
 21 24  2  0  0  0  0
 22 23  1  0  0  0  0
 22 24  1  0  0  0  0
 23 25  2  0  0  0  0
 23 26  1  0  0  0  0
  1 27  1  0  0  0  0
  2 28  1  0  0  0  0
  2 29  1  0  0  0  0
  3 30  1  0  0  0  0
  3 31  1  0  0  0  0
  4 32  1  0  0  0  0
  5 33  1  0  0  0  0
  5 34  1  0  0  0  0
  9 35  1  0  0  0  0
 10 36  1  0  0  0  0
 11 37  1  0  0  0  0
 17 38  1  0  0  0  0
 19 39  1  0  0  0  0
 21 40  1  0  0  0  0
 22 41  1  0  0  0  0
 22 42  1  0  0  0  0
 24 43  1  0  0  0  0
 25 44  1  0  0  0  0
 26 45  1  0  0  0  0
 26 46  1  0  0  0  0
 26 47  1  0  0  0  0
M  END
> <Name>
13

> <IC50[uM]>
0.006

$$$$
13
  -OEChem-05192314333D
 Structure written by MMmdl.
 47 50  0     1  0  0  0  0  0999 V2000
   -2.2088   12.9419  -10.9697 C   0  0  1  0  0  0  0  0  0  0  0  0
   -2.1904   14.4671  -10.9424 C   0  0  0  0  0  0  0  0  0  0  0  0
   -3.6992   12.5876  -10.8377 C   0  0  0  0  0  0  0  0  0  0  0  0
   -1.6826   12.4744  -12.1795 O   0  0  0  0  0  0  0  0  0  0  0  0
   -3.5107   14.9139  -11.6089 C   0  0  0  0  0  0  0  0  0  0  0  0
   -4.3443   13.7200  -11.5243 N   0  0  0  0  0  0  0  0  0  0  0  0
   -6.3525   12.3601  -12.0338 C   0  0  0  0  0  0  0  0  0  0  0  0
   -6.9727   11.7556  -13.1375 C   0  0  0  0  0  0  0  0  0  0  0  0
   -7.7097   10.5633  -13.0339 C   0  0  0  0  0  0  0  0  0  0  0  0
   -6.5001   11.8056  -10.7491 C   0  0  0  0  0  0  0  0  0  0  0  0
   -6.8506   12.3073  -14.3824 O   0  0  0  0  0  0  0  0  0  0  0  0
   -5.5377   13.6382  -12.2001 C   0  0  0  0  0  0  0  0  0  0  0  0
   -5.9500   14.5444  -12.9177 O   0  0  0  0  0  0  0  0  0  0  0  0
   -7.2308   10.6159  -10.6131 C   0  0  0  0  0  0  0  0  0  0  0  0
   -7.8083   10.0113  -11.7524 C   0  0  0  0  0  0  0  0  0  0  0  0
   -8.4200    8.8675  -11.2880 N   0  0  0  0  0  0  0  0  0  0  0  0
   -8.2847    8.7400   -9.9757 N   0  0  0  0  0  0  0  0  0  0  0  0
   -7.6047    9.7473   -9.5145 C   0  0  0  0  0  0  0  0  0  0  0  0
   -7.3264    9.8951   -8.0245 C   0  0  0  0  0  0  0  0  0  0  0  0
   -5.9604   10.4805   -7.7353 C   0  0  0  0  0  0  0  0  0  0  0  0
   -4.8075    9.7596   -8.0491 C   0  0  0  0  0  0  0  0  0  0  0  0
   -3.4358   11.5809   -7.2415 C   0  0  0  0  0  0  0  0  0  0  0  0
   -4.5835   12.3061   -6.9225 C   0  0  0  0  0  0  0  0  0  0  0  0
   -3.5481   10.3107   -7.8024 C   0  0  0  0  0  0  0  0  0  0  0  0
   -5.8471   11.7541   -7.1666 C   0  0  0  0  0  0  0  0  0  0  0  0
   -4.4650   13.6954   -6.3241 C   0  0  0  0  0  0  0  0  0  0  0  0
   -1.6558   12.5461  -10.1051 H   0  0  0  0  0  0  0  0  0  0  0  0
   -2.1418   14.8314   -9.9056 H   0  0  0  0  0  0  0  0  0  0  0  0
   -1.3273   14.8503  -11.5065 H   0  0  0  0  0  0  0  0  0  0  0  0
   -3.9292   11.6343  -11.3361 H   0  0  0  0  0  0  0  0  0  0  0  0
   -4.0052   12.5329   -9.7825 H   0  0  0  0  0  0  0  0  0  0  0  0
   -1.6986   11.5246  -12.1863 H   0  0  0  0  0  0  0  0  0  0  0  0
   -3.9654   15.7526  -11.0614 H   0  0  0  0  0  0  0  0  0  0  0  0
   -3.3451   15.2065  -12.6563 H   0  0  0  0  0  0  0  0  0  0  0  0
   -8.1726   10.1006  -13.8930 H   0  0  0  0  0  0  0  0  0  0  0  0
   -6.0607   12.2852   -9.8870 H   0  0  0  0  0  0  0  0  0  0  0  0
   -6.5242   13.1961  -14.3048 H   0  0  0  0  0  0  0  0  0  0  0  0
   -8.6485    7.9874   -9.4268 H   0  0  0  0  0  0  0  0  0  0  0  0
   -8.0295    9.6121   -7.2551 H   0  0  0  0  0  0  0  0  0  0  0  0
   -4.8892    8.7741   -8.4833 H   0  0  0  0  0  0  0  0  0  0  0  0
   -2.4600   12.0040   -7.0537 H   0  0  0  0  0  0  0  0  0  0  0  0
   -2.6581    9.7501   -8.0474 H   0  0  0  0  0  0  0  0  0  0  0  0
   -6.3717   12.4489   -7.8389 H   0  0  0  0  0  0  0  0  0  0  0  0
   -6.3685   11.7163   -6.1988 H   0  0  0  0  0  0  0  0  0  0  0  0
   -5.4700   14.1039   -6.1424 H   0  0  0  0  0  0  0  0  0  0  0  0
   -3.9148   13.6392   -5.3732 H   0  0  0  0  0  0  0  0  0  0  0  0
   -3.9239   14.3505   -7.0227 H   0  0  0  0  0  0  0  0  0  0  0  0
  1  2  1  0  0  0  0
  1  3  1  0  0  0  0
  1  4  1  0  0  0  0
  2  5  1  0  0  0  0
  3  6  1  0  0  0  0
  5  6  1  0  0  0  0
  6 12  1  0  0  0  0
  7  8  1  0  0  0  0
  7 10  2  0  0  0  0
  7 12  1  0  0  0  0
  8  9  2  0  0  0  0
  8 11  1  0  0  0  0
  9 15  1  0  0  0  0
 10 14  1  0  0  0  0
 12 13  2  0  0  0  0
 14 15  1  0  0  0  0
 14 18  2  0  0  0  0
 15 16  2  0  0  0  0
 16 17  1  0  0  0  0
 17 18  1  0  0  0  0
 18 19  1  0  0  0  0
 19 20  2  0  0  0  0
 20 21  1  0  0  0  0
 20 25  1  0  0  0  0
 21 24  2  0  0  0  0
 22 23  2  0  0  0  0
 22 24  1  0  0  0  0
 23 25  1  0  0  0  0
 23 26  1  0  0  0  0
  1 27  1  0  0  0  0
  2 28  1  0  0  0  0
  2 29  1  0  0  0  0
  3 30  1  0  0  0  0
  3 31  1  0  0  0  0
  4 32  1  0  0  0  0
  5 33  1  0  0  0  0
  5 34  1  0  0  0  0
  9 35  1  0  0  0  0
 10 36  1  0  0  0  0
 11 37  1  0  0  0  0
 17 38  1  0  0  0  0
 19 39  1  0  0  0  0
 21 40  1  0  0  0  0
 22 41  1  0  0  0  0
 24 42  1  0  0  0  0
 25 43  1  0  0  0  0
 25 44  1  0  0  0  0
 26 45  1  0  0  0  0
 26 46  1  0  0  0  0
 26 47  1  0  0  0  0
M  END
> <Name>
13

> <IC50[uM]>
0.006

$$$$
13
  -OEChem-05192314333D
 Structure written by MMmdl.
 47 50  0     1  0  0  0  0  0999 V2000
   -2.2088   12.9419  -10.9697 C   0  0  1  0  0  0  0  0  0  0  0  0
   -2.1904   14.4671  -10.9424 C   0  0  0  0  0  0  0  0  0  0  0  0
   -3.6992   12.5876  -10.8377 C   0  0  0  0  0  0  0  0  0  0  0  0
   -1.6826   12.4744  -12.1795 O   0  0  0  0  0  0  0  0  0  0  0  0
   -3.5107   14.9139  -11.6089 C   0  0  0  0  0  0  0  0  0  0  0  0
   -4.3443   13.7200  -11.5243 N   0  0  0  0  0  0  0  0  0  0  0  0
   -6.3525   12.3601  -12.0338 C   0  0  0  0  0  0  0  0  0  0  0  0
   -6.9727   11.7556  -13.1375 C   0  0  0  0  0  0  0  0  0  0  0  0
   -7.7097   10.5633  -13.0339 C   0  0  0  0  0  0  0  0  0  0  0  0
   -6.5001   11.8056  -10.7491 C   0  0  0  0  0  0  0  0  0  0  0  0
   -6.8506   12.3073  -14.3824 O   0  0  0  0  0  0  0  0  0  0  0  0
   -5.5377   13.6382  -12.2001 C   0  0  0  0  0  0  0  0  0  0  0  0
   -5.9500   14.5444  -12.9177 O   0  0  0  0  0  0  0  0  0  0  0  0
   -7.2308   10.6159  -10.6131 C   0  0  0  0  0  0  0  0  0  0  0  0
   -7.8083   10.0113  -11.7524 C   0  0  0  0  0  0  0  0  0  0  0  0
   -8.4200    8.8675  -11.2880 N   0  0  0  0  0  0  0  0  0  0  0  0
   -8.2847    8.7400   -9.9757 N   0  0  0  0  0  0  0  0  0  0  0  0
   -7.6047    9.7473   -9.5145 C   0  0  0  0  0  0  0  0  0  0  0  0
   -7.3264    9.8951   -8.0245 C   0  0  0  0  0  0  0  0  0  0  0  0
   -5.9604   10.4805   -7.7353 C   0  0  0  0  0  0  0  0  0  0  0  0
   -4.8075    9.7596   -8.0491 C   0  0  0  0  0  0  0  0  0  0  0  0
   -3.4358   11.5809   -7.2415 C   0  0  0  0  0  0  0  0  0  0  0  0
   -4.5835   12.3061   -6.9225 C   0  0  0  0  0  0  0  0  0  0  0  0
   -3.5481   10.3107   -7.8024 C   0  0  0  0  0  0  0  0  0  0  0  0
   -5.8471   11.7541   -7.1666 C   0  0  0  0  0  0  0  0  0  0  0  0
   -4.4650   13.6954   -6.3241 C   0  0  0  0  0  0  0  0  0  0  0  0
   -1.6558   12.5461  -10.1051 H   0  0  0  0  0  0  0  0  0  0  0  0
   -2.1418   14.8314   -9.9056 H   0  0  0  0  0  0  0  0  0  0  0  0
   -1.3273   14.8503  -11.5065 H   0  0  0  0  0  0  0  0  0  0  0  0
   -3.9292   11.6343  -11.3361 H   0  0  0  0  0  0  0  0  0  0  0  0
   -4.0052   12.5329   -9.7825 H   0  0  0  0  0  0  0  0  0  0  0  0
   -1.6986   11.5246  -12.1863 H   0  0  0  0  0  0  0  0  0  0  0  0
   -3.9654   15.7526  -11.0614 H   0  0  0  0  0  0  0  0  0  0  0  0
   -3.3451   15.2065  -12.6563 H   0  0  0  0  0  0  0  0  0  0  0  0
   -8.1726   10.1006  -13.8930 H   0  0  0  0  0  0  0  0  0  0  0  0
   -6.0607   12.2852   -9.8870 H   0  0  0  0  0  0  0  0  0  0  0  0
   -8.9058    8.2145  -11.8690 H   0  0  0  0  0  0  0  0  0  0  0  0
   -8.6485    7.9874   -9.4268 H   0  0  0  0  0  0  0  0  0  0  0  0
   -8.0295    9.6121   -7.2551 H   0  0  0  0  0  0  0  0  0  0  0  0
   -4.8582    8.8181   -7.4825 H   0  0  0  0  0  0  0  0  0  0  0  0
   -4.8529    9.5421   -9.1264 H   0  0  0  0  0  0  0  0  0  0  0  0
   -2.4600   12.0040   -7.0537 H   0  0  0  0  0  0  0  0  0  0  0  0
   -2.6581    9.7501   -8.0474 H   0  0  0  0  0  0  0  0  0  0  0  0
   -6.7366   12.3128   -6.9153 H   0  0  0  0  0  0  0  0  0  0  0  0
   -5.4700   14.1039   -6.1424 H   0  0  0  0  0  0  0  0  0  0  0  0
   -3.9148   13.6392   -5.3732 H   0  0  0  0  0  0  0  0  0  0  0  0
   -3.9239   14.3505   -7.0227 H   0  0  0  0  0  0  0  0  0  0  0  0
  1  2  1  0  0  0  0
  1  3  1  0  0  0  0
  1  4  1  0  0  0  0
  2  5  1  0  0  0  0
  3  6  1  0  0  0  0
  5  6  1  0  0  0  0
  6 12  1  0  0  0  0
  7  8  1  0  0  0  0
  7 10  2  0  0  0  0
  7 12  1  0  0  0  0
  8  9  1  0  0  0  0
  8 11  2  0  0  0  0
  9 15  2  0  0  0  0
 10 14  1  0  0  0  0
 12 13  2  0  0  0  0
 14 15  1  0  0  0  0
 14 18  2  0  0  0  0
 15 16  1  0  0  0  0
 16 17  1  0  0  0  0
 17 18  1  0  0  0  0
 18 19  1  0  0  0  0
 19 20  2  0  0  0  0
 20 21  1  0  0  0  0
 20 25  1  0  0  0  0
 21 24  1  0  0  0  0
 22 23  1  0  0  0  0
 22 24  2  0  0  0  0
 23 25  2  0  0  0  0
 23 26  1  0  0  0  0
  1 27  1  0  0  0  0
  2 28  1  0  0  0  0
  2 29  1  0  0  0  0
  3 30  1  0  0  0  0
  3 31  1  0  0  0  0
  4 32  1  0  0  0  0
  5 33  1  0  0  0  0
  5 34  1  0  0  0  0
  9 35  1  0  0  0  0
 10 36  1  0  0  0  0
 16 37  1  0  0  0  0
 17 38  1  0  0  0  0
 19 39  1  0  0  0  0
 21 40  1  0  0  0  0
 21 41  1  0  0  0  0
 22 42  1  0  0  0  0
 24 43  1  0  0  0  0
 25 44  1  0  0  0  0
 26 45  1  0  0  0  0
 26 46  1  0  0  0  0
 26 47  1  0  0  0  0
M  END
> <Name>
13

> <IC50[uM]>
0.006

$$$$
13
  -OEChem-05192314333D
 Structure written by MMmdl.
 47 50  0     1  0  0  0  0  0999 V2000
   -2.2088   12.9419  -10.9697 C   0  0  1  0  0  0  0  0  0  0  0  0
   -2.1904   14.4671  -10.9424 C   0  0  0  0  0  0  0  0  0  0  0  0
   -3.6992   12.5876  -10.8377 C   0  0  0  0  0  0  0  0  0  0  0  0
   -1.6826   12.4744  -12.1795 O   0  0  0  0  0  0  0  0  0  0  0  0
   -3.5107   14.9139  -11.6089 C   0  0  0  0  0  0  0  0  0  0  0  0
   -4.3443   13.7200  -11.5243 N   0  0  0  0  0  0  0  0  0  0  0  0
   -6.3525   12.3601  -12.0338 C   0  0  0  0  0  0  0  0  0  0  0  0
   -6.9727   11.7556  -13.1375 C   0  0  0  0  0  0  0  0  0  0  0  0
   -7.7097   10.5633  -13.0339 C   0  0  0  0  0  0  0  0  0  0  0  0
   -6.5001   11.8056  -10.7491 C   0  0  0  0  0  0  0  0  0  0  0  0
   -6.8506   12.3073  -14.3824 O   0  0  0  0  0  0  0  0  0  0  0  0
   -5.5377   13.6382  -12.2001 C   0  0  0  0  0  0  0  0  0  0  0  0
   -5.9500   14.5444  -12.9177 O   0  0  0  0  0  0  0  0  0  0  0  0
   -7.2308   10.6159  -10.6131 C   0  0  0  0  0  0  0  0  0  0  0  0
   -7.8083   10.0113  -11.7524 C   0  0  0  0  0  0  0  0  0  0  0  0
   -8.4200    8.8675  -11.2880 N   0  0  0  0  0  0  0  0  0  0  0  0
   -8.2847    8.7400   -9.9757 N   0  0  0  0  0  0  0  0  0  0  0  0
   -7.6047    9.7473   -9.5145 C   0  0  0  0  0  0  0  0  0  0  0  0
   -7.3264    9.8951   -8.0245 C   0  0  0  0  0  0  0  0  0  0  0  0
   -5.9604   10.4805   -7.7353 C   0  0  0  0  0  0  0  0  0  0  0  0
   -4.8075    9.7596   -8.0491 C   0  0  0  0  0  0  0  0  0  0  0  0
   -3.4358   11.5809   -7.2415 C   0  0  0  0  0  0  0  0  0  0  0  0
   -4.5835   12.3061   -6.9225 C   0  0  0  0  0  0  0  0  0  0  0  0
   -3.5481   10.3107   -7.8024 C   0  0  0  0  0  0  0  0  0  0  0  0
   -5.8471   11.7541   -7.1666 C   0  0  0  0  0  0  0  0  0  0  0  0
   -4.4650   13.6954   -6.3241 C   0  0  0  0  0  0  0  0  0  0  0  0
   -1.6558   12.5461  -10.1051 H   0  0  0  0  0  0  0  0  0  0  0  0
   -2.1418   14.8314   -9.9056 H   0  0  0  0  0  0  0  0  0  0  0  0
   -1.3273   14.8503  -11.5065 H   0  0  0  0  0  0  0  0  0  0  0  0
   -3.9292   11.6343  -11.3361 H   0  0  0  0  0  0  0  0  0  0  0  0
   -4.0052   12.5329   -9.7825 H   0  0  0  0  0  0  0  0  0  0  0  0
   -1.6986   11.5246  -12.1863 H   0  0  0  0  0  0  0  0  0  0  0  0
   -3.9654   15.7526  -11.0614 H   0  0  0  0  0  0  0  0  0  0  0  0
   -3.3451   15.2065  -12.6563 H   0  0  0  0  0  0  0  0  0  0  0  0
   -8.1726   10.1006  -13.8930 H   0  0  0  0  0  0  0  0  0  0  0  0
   -6.0607   12.2852   -9.8870 H   0  0  0  0  0  0  0  0  0  0  0  0
   -8.9058    8.2145  -11.8690 H   0  0  0  0  0  0  0  0  0  0  0  0
   -8.6485    7.9874   -9.4268 H   0  0  0  0  0  0  0  0  0  0  0  0
   -8.0295    9.6121   -7.2551 H   0  0  0  0  0  0  0  0  0  0  0  0
   -4.8892    8.7741   -8.4833 H   0  0  0  0  0  0  0  0  0  0  0  0
   -2.8612   12.1924   -7.9527 H   0  0  0  0  0  0  0  0  0  0  0  0
   -2.8628   11.4670   -6.3094 H   0  0  0  0  0  0  0  0  0  0  0  0
   -2.6581    9.7501   -8.0474 H   0  0  0  0  0  0  0  0  0  0  0  0
   -6.7366   12.3128   -6.9153 H   0  0  0  0  0  0  0  0  0  0  0  0
   -5.4700   14.1039   -6.1424 H   0  0  0  0  0  0  0  0  0  0  0  0
   -3.9148   13.6392   -5.3732 H   0  0  0  0  0  0  0  0  0  0  0  0
   -3.9239   14.3505   -7.0227 H   0  0  0  0  0  0  0  0  0  0  0  0
  1  2  1  0  0  0  0
  1  3  1  0  0  0  0
  1  4  1  0  0  0  0
  2  5  1  0  0  0  0
  3  6  1  0  0  0  0
  5  6  1  0  0  0  0
  6 12  1  0  0  0  0
  7  8  1  0  0  0  0
  7 10  2  0  0  0  0
  7 12  1  0  0  0  0
  8  9  1  0  0  0  0
  8 11  2  0  0  0  0
  9 15  2  0  0  0  0
 10 14  1  0  0  0  0
 12 13  2  0  0  0  0
 14 15  1  0  0  0  0
 14 18  2  0  0  0  0
 15 16  1  0  0  0  0
 16 17  1  0  0  0  0
 17 18  1  0  0  0  0
 18 19  1  0  0  0  0
 19 20  2  0  0  0  0
 20 21  1  0  0  0  0
 20 25  1  0  0  0  0
 21 24  2  0  0  0  0
 22 23  1  0  0  0  0
 22 24  1  0  0  0  0
 23 25  2  0  0  0  0
 23 26  1  0  0  0  0
  1 27  1  0  0  0  0
  2 28  1  0  0  0  0
  2 29  1  0  0  0  0
  3 30  1  0  0  0  0
  3 31  1  0  0  0  0
  4 32  1  0  0  0  0
  5 33  1  0  0  0  0
  5 34  1  0  0  0  0
  9 35  1  0  0  0  0
 10 36  1  0  0  0  0
 16 37  1  0  0  0  0
 17 38  1  0  0  0  0
 19 39  1  0  0  0  0
 21 40  1  0  0  0  0
 22 41  1  0  0  0  0
 22 42  1  0  0  0  0
 24 43  1  0  0  0  0
 25 44  1  0  0  0  0
 26 45  1  0  0  0  0
 26 46  1  0  0  0  0
 26 47  1  0  0  0  0
M  END
> <Name>
13

> <IC50[uM]>
0.006

$$$$
13
  -OEChem-05192314333D
 Structure written by MMmdl.
 47 50  0     1  0  0  0  0  0999 V2000
   -2.2088   12.9419  -10.9697 C   0  0  1  0  0  0  0  0  0  0  0  0
   -2.1904   14.4671  -10.9424 C   0  0  0  0  0  0  0  0  0  0  0  0
   -3.6992   12.5876  -10.8377 C   0  0  0  0  0  0  0  0  0  0  0  0
   -1.6826   12.4744  -12.1795 O   0  0  0  0  0  0  0  0  0  0  0  0
   -3.5107   14.9139  -11.6089 C   0  0  0  0  0  0  0  0  0  0  0  0
   -4.3443   13.7200  -11.5243 N   0  0  0  0  0  0  0  0  0  0  0  0
   -6.3525   12.3601  -12.0338 C   0  0  0  0  0  0  0  0  0  0  0  0
   -6.9727   11.7556  -13.1375 C   0  0  0  0  0  0  0  0  0  0  0  0
   -7.7097   10.5633  -13.0339 C   0  0  0  0  0  0  0  0  0  0  0  0
   -6.5001   11.8056  -10.7491 C   0  0  0  0  0  0  0  0  0  0  0  0
   -6.8506   12.3073  -14.3824 O   0  0  0  0  0  0  0  0  0  0  0  0
   -5.5377   13.6382  -12.2001 C   0  0  0  0  0  0  0  0  0  0  0  0
   -5.9500   14.5444  -12.9177 O   0  0  0  0  0  0  0  0  0  0  0  0
   -7.2308   10.6159  -10.6131 C   0  0  0  0  0  0  0  0  0  0  0  0
   -7.8083   10.0113  -11.7524 C   0  0  0  0  0  0  0  0  0  0  0  0
   -8.4200    8.8675  -11.2880 N   0  0  0  0  0  0  0  0  0  0  0  0
   -8.2847    8.7400   -9.9757 N   0  0  0  0  0  0  0  0  0  0  0  0
   -7.6047    9.7473   -9.5145 C   0  0  0  0  0  0  0  0  0  0  0  0
   -7.3264    9.8951   -8.0245 C   0  0  0  0  0  0  0  0  0  0  0  0
   -5.9604   10.4805   -7.7353 C   0  0  0  0  0  0  0  0  0  0  0  0
   -4.8075    9.7596   -8.0491 C   0  0  0  0  0  0  0  0  0  0  0  0
   -3.4358   11.5809   -7.2415 C   0  0  0  0  0  0  0  0  0  0  0  0
   -4.5835   12.3061   -6.9225 C   0  0  0  0  0  0  0  0  0  0  0  0
   -3.5481   10.3107   -7.8024 C   0  0  0  0  0  0  0  0  0  0  0  0
   -5.8471   11.7541   -7.1666 C   0  0  0  0  0  0  0  0  0  0  0  0
   -4.4650   13.6954   -6.3241 C   0  0  0  0  0  0  0  0  0  0  0  0
   -1.6558   12.5461  -10.1051 H   0  0  0  0  0  0  0  0  0  0  0  0
   -2.1418   14.8314   -9.9056 H   0  0  0  0  0  0  0  0  0  0  0  0
   -1.3273   14.8503  -11.5065 H   0  0  0  0  0  0  0  0  0  0  0  0
   -3.9292   11.6343  -11.3361 H   0  0  0  0  0  0  0  0  0  0  0  0
   -4.0052   12.5329   -9.7825 H   0  0  0  0  0  0  0  0  0  0  0  0
   -1.6986   11.5246  -12.1863 H   0  0  0  0  0  0  0  0  0  0  0  0
   -3.9654   15.7526  -11.0614 H   0  0  0  0  0  0  0  0  0  0  0  0
   -3.3451   15.2065  -12.6563 H   0  0  0  0  0  0  0  0  0  0  0  0
   -8.1726   10.1006  -13.8930 H   0  0  0  0  0  0  0  0  0  0  0  0
   -6.0607   12.2852   -9.8870 H   0  0  0  0  0  0  0  0  0  0  0  0
   -8.9058    8.2145  -11.8690 H   0  0  0  0  0  0  0  0  0  0  0  0
   -8.6485    7.9874   -9.4268 H   0  0  0  0  0  0  0  0  0  0  0  0
   -8.0295    9.6121   -7.2551 H   0  0  0  0  0  0  0  0  0  0  0  0
   -4.8892    8.7741   -8.4833 H   0  0  0  0  0  0  0  0  0  0  0  0
   -2.4600   12.0040   -7.0537 H   0  0  0  0  0  0  0  0  0  0  0  0
   -2.6581    9.7501   -8.0474 H   0  0  0  0  0  0  0  0  0  0  0  0
   -6.3717   12.4489   -7.8389 H   0  0  0  0  0  0  0  0  0  0  0  0
   -6.3685   11.7163   -6.1988 H   0  0  0  0  0  0  0  0  0  0  0  0
   -5.4700   14.1039   -6.1424 H   0  0  0  0  0  0  0  0  0  0  0  0
   -3.9148   13.6392   -5.3732 H   0  0  0  0  0  0  0  0  0  0  0  0
   -3.9239   14.3505   -7.0227 H   0  0  0  0  0  0  0  0  0  0  0  0
  1  2  1  0  0  0  0
  1  3  1  0  0  0  0
  1  4  1  0  0  0  0
  2  5  1  0  0  0  0
  3  6  1  0  0  0  0
  5  6  1  0  0  0  0
  6 12  1  0  0  0  0
  7  8  1  0  0  0  0
  7 10  2  0  0  0  0
  7 12  1  0  0  0  0
  8  9  1  0  0  0  0
  8 11  2  0  0  0  0
  9 15  2  0  0  0  0
 10 14  1  0  0  0  0
 12 13  2  0  0  0  0
 14 15  1  0  0  0  0
 14 18  2  0  0  0  0
 15 16  1  0  0  0  0
 16 17  1  0  0  0  0
 17 18  1  0  0  0  0
 18 19  1  0  0  0  0
 19 20  2  0  0  0  0
 20 21  1  0  0  0  0
 20 25  1  0  0  0  0
 21 24  2  0  0  0  0
 22 23  2  0  0  0  0
 22 24  1  0  0  0  0
 23 25  1  0  0  0  0
 23 26  1  0  0  0  0
  1 27  1  0  0  0  0
  2 28  1  0  0  0  0
  2 29  1  0  0  0  0
  3 30  1  0  0  0  0
  3 31  1  0  0  0  0
  4 32  1  0  0  0  0
  5 33  1  0  0  0  0
  5 34  1  0  0  0  0
  9 35  1  0  0  0  0
 10 36  1  0  0  0  0
 16 37  1  0  0  0  0
 17 38  1  0  0  0  0
 19 39  1  0  0  0  0
 21 40  1  0  0  0  0
 22 41  1  0  0  0  0
 24 42  1  0  0  0  0
 25 43  1  0  0  0  0
 25 44  1  0  0  0  0
 26 45  1  0  0  0  0
 26 46  1  0  0  0  0
 26 47  1  0  0  0  0
M  END
> <Name>
13

> <IC50[uM]>
0.006

$$$$
13
  -OEChem-05192314333D
 Structure written by MMmdl.
 47 50  0     1  0  0  0  0  0999 V2000
   -2.2088   12.9419  -10.9697 C   0  0  1  0  0  0  0  0  0  0  0  0
   -2.1904   14.4671  -10.9424 C   0  0  0  0  0  0  0  0  0  0  0  0
   -3.6992   12.5876  -10.8377 C   0  0  0  0  0  0  0  0  0  0  0  0
   -1.6826   12.4744  -12.1795 O   0  0  0  0  0  0  0  0  0  0  0  0
   -3.5107   14.9139  -11.6089 C   0  0  0  0  0  0  0  0  0  0  0  0
   -4.3443   13.7200  -11.5243 N   0  0  0  0  0  0  0  0  0  0  0  0
   -6.3525   12.3601  -12.0338 C   0  0  0  0  0  0  0  0  0  0  0  0
   -6.9727   11.7556  -13.1375 C   0  0  0  0  0  0  0  0  0  0  0  0
   -7.7097   10.5633  -13.0339 C   0  0  0  0  0  0  0  0  0  0  0  0
   -6.5001   11.8056  -10.7491 C   0  0  0  0  0  0  0  0  0  0  0  0
   -6.8506   12.3073  -14.3824 O   0  0  0  0  0  0  0  0  0  0  0  0
   -5.5377   13.6382  -12.2001 C   0  0  0  0  0  0  0  0  0  0  0  0
   -5.9500   14.5444  -12.9177 O   0  0  0  0  0  0  0  0  0  0  0  0
   -7.2308   10.6159  -10.6131 C   0  0  0  0  0  0  0  0  0  0  0  0
   -7.8083   10.0113  -11.7524 C   0  0  0  0  0  0  0  0  0  0  0  0
   -8.4200    8.8675  -11.2880 N   0  0  0  0  0  0  0  0  0  0  0  0
   -8.2847    8.7400   -9.9757 N   0  0  0  0  0  0  0  0  0  0  0  0
   -7.6047    9.7473   -9.5145 C   0  0  0  0  0  0  0  0  0  0  0  0
   -7.3264    9.8951   -8.0245 C   0  0  0  0  0  0  0  0  0  0  0  0
   -5.9604   10.4805   -7.7353 C   0  0  0  0  0  0  0  0  0  0  0  0
   -4.8075    9.7596   -8.0491 C   0  0  0  0  0  0  0  0  0  0  0  0
   -3.4358   11.5809   -7.2415 C   0  0  0  0  0  0  0  0  0  0  0  0
   -4.5835   12.3061   -6.9225 C   0  0  0  0  0  0  0  0  0  0  0  0
   -3.5481   10.3107   -7.8024 C   0  0  0  0  0  0  0  0  0  0  0  0
   -5.8471   11.7541   -7.1666 C   0  0  0  0  0  0  0  0  0  0  0  0
   -4.4650   13.6954   -6.3241 C   0  0  0  0  0  0  0  0  0  0  0  0
   -1.6558   12.5461  -10.1051 H   0  0  0  0  0  0  0  0  0  0  0  0
   -2.1418   14.8314   -9.9056 H   0  0  0  0  0  0  0  0  0  0  0  0
   -1.3273   14.8503  -11.5065 H   0  0  0  0  0  0  0  0  0  0  0  0
   -3.9292   11.6343  -11.3361 H   0  0  0  0  0  0  0  0  0  0  0  0
   -4.0052   12.5329   -9.7825 H   0  0  0  0  0  0  0  0  0  0  0  0
   -1.6986   11.5246  -12.1863 H   0  0  0  0  0  0  0  0  0  0  0  0
   -3.9654   15.7526  -11.0614 H   0  0  0  0  0  0  0  0  0  0  0  0
   -3.3451   15.2065  -12.6563 H   0  0  0  0  0  0  0  0  0  0  0  0
   -8.7298   10.7663  -13.3920 H   0  0  0  0  0  0  0  0  0  0  0  0
   -7.2340    9.8162  -13.6862 H   0  0  0  0  0  0  0  0  0  0  0  0
   -6.0607   12.2852   -9.8870 H   0  0  0  0  0  0  0  0  0  0  0  0
   -6.5242   13.1961  -14.3048 H   0  0  0  0  0  0  0  0  0  0  0  0
   -8.0906   10.5553   -7.5885 H   0  0  0  0  0  0  0  0  0  0  0  0
   -7.3891    8.9020   -7.5556 H   0  0  0  0  0  0  0  0  0  0  0  0
   -4.8892    8.7741   -8.4833 H   0  0  0  0  0  0  0  0  0  0  0  0
   -2.4600   12.0040   -7.0537 H   0  0  0  0  0  0  0  0  0  0  0  0
   -2.6581    9.7501   -8.0474 H   0  0  0  0  0  0  0  0  0  0  0  0
   -6.7366   12.3128   -6.9153 H   0  0  0  0  0  0  0  0  0  0  0  0
   -4.4364   14.4418   -7.1316 H   0  0  0  0  0  0  0  0  0  0  0  0
   -5.3317   13.8902   -5.6754 H   0  0  0  0  0  0  0  0  0  0  0  0
   -3.5409   13.7615   -5.7311 H   0  0  0  0  0  0  0  0  0  0  0  0
  1  2  1  0  0  0  0
  1  3  1  0  0  0  0
  1  4  1  0  0  0  0
  2  5  1  0  0  0  0
  3  6  1  0  0  0  0
  5  6  1  0  0  0  0
  6 12  1  0  0  0  0
  7  8  2  0  0  0  0
  7 10  1  0  0  0  0
  7 12  1  0  0  0  0
  8  9  1  0  0  0  0
  8 11  1  0  0  0  0
  9 15  1  0  0  0  0
 10 14  2  0  0  0  0
 12 13  2  0  0  0  0
 14 15  1  0  0  0  0
 14 18  1  0  0  0  0
 15 16  2  0  0  0  0
 16 17  1  0  0  0  0
 17 18  2  0  0  0  0
 18 19  1  0  0  0  0
 19 20  1  0  0  0  0
 20 21  2  0  0  0  0
 20 25  1  0  0  0  0
 21 24  1  0  0  0  0
 22 23  1  0  0  0  0
 22 24  2  0  0  0  0
 23 25  2  0  0  0  0
 23 26  1  0  0  0  0
  1 27  1  0  0  0  0
  2 28  1  0  0  0  0
  2 29  1  0  0  0  0
  3 30  1  0  0  0  0
  3 31  1  0  0  0  0
  4 32  1  0  0  0  0
  5 33  1  0  0  0  0
  5 34  1  0  0  0  0
  9 35  1  0  0  0  0
  9 36  1  0  0  0  0
 10 37  1  0  0  0  0
 11 38  1  0  0  0  0
 19 39  1  0  0  0  0
 19 40  1  0  0  0  0
 21 41  1  0  0  0  0
 22 42  1  0  0  0  0
 24 43  1  0  0  0  0
 25 44  1  0  0  0  0
 26 45  1  0  0  0  0
 26 46  1  0  0  0  0
 26 47  1  0  0  0  0
M  END
> <Name>
13

> <IC50[uM]>
0.006

$$$$
13
  -OEChem-05192314333D
 Structure written by MMmdl.
 47 50  0     1  0  0  0  0  0999 V2000
   -2.2088   12.9419  -10.9697 C   0  0  1  0  0  0  0  0  0  0  0  0
   -2.1904   14.4671  -10.9424 C   0  0  0  0  0  0  0  0  0  0  0  0
   -3.6992   12.5876  -10.8377 C   0  0  0  0  0  0  0  0  0  0  0  0
   -1.6826   12.4744  -12.1795 O   0  0  0  0  0  0  0  0  0  0  0  0
   -3.5107   14.9139  -11.6089 C   0  0  0  0  0  0  0  0  0  0  0  0
   -4.3443   13.7200  -11.5243 N   0  0  0  0  0  0  0  0  0  0  0  0
   -6.3525   12.3601  -12.0338 C   0  0  0  0  0  0  0  0  0  0  0  0
   -6.9727   11.7556  -13.1375 C   0  0  0  0  0  0  0  0  0  0  0  0
   -7.7097   10.5633  -13.0339 C   0  0  0  0  0  0  0  0  0  0  0  0
   -6.5001   11.8056  -10.7491 C   0  0  0  0  0  0  0  0  0  0  0  0
   -6.8506   12.3073  -14.3824 O   0  0  0  0  0  0  0  0  0  0  0  0
   -5.5377   13.6382  -12.2001 C   0  0  0  0  0  0  0  0  0  0  0  0
   -5.9500   14.5444  -12.9177 O   0  0  0  0  0  0  0  0  0  0  0  0
   -7.2308   10.6159  -10.6131 C   0  0  0  0  0  0  0  0  0  0  0  0
   -7.8083   10.0113  -11.7524 C   0  0  0  0  0  0  0  0  0  0  0  0
   -8.4200    8.8675  -11.2880 N   0  0  0  0  0  0  0  0  0  0  0  0
   -8.2847    8.7400   -9.9757 N   0  0  0  0  0  0  0  0  0  0  0  0
   -7.6047    9.7473   -9.5145 C   0  0  0  0  0  0  0  0  0  0  0  0
   -7.3264    9.8951   -8.0245 C   0  0  0  0  0  0  0  0  0  0  0  0
   -5.9604   10.4805   -7.7353 C   0  0  0  0  0  0  0  0  0  0  0  0
   -4.8075    9.7596   -8.0491 C   0  0  0  0  0  0  0  0  0  0  0  0
   -3.4358   11.5809   -7.2415 C   0  0  0  0  0  0  0  0  0  0  0  0
   -4.5835   12.3061   -6.9225 C   0  0  0  0  0  0  0  0  0  0  0  0
   -3.5481   10.3107   -7.8024 C   0  0  0  0  0  0  0  0  0  0  0  0
   -5.8471   11.7541   -7.1666 C   0  0  0  0  0  0  0  0  0  0  0  0
   -4.4650   13.6954   -6.3241 C   0  0  0  0  0  0  0  0  0  0  0  0
   -1.6558   12.5461  -10.1051 H   0  0  0  0  0  0  0  0  0  0  0  0
   -2.1418   14.8314   -9.9056 H   0  0  0  0  0  0  0  0  0  0  0  0
   -1.3273   14.8503  -11.5065 H   0  0  0  0  0  0  0  0  0  0  0  0
   -3.9292   11.6343  -11.3361 H   0  0  0  0  0  0  0  0  0  0  0  0
   -4.0052   12.5329   -9.7825 H   0  0  0  0  0  0  0  0  0  0  0  0
   -1.6986   11.5246  -12.1863 H   0  0  0  0  0  0  0  0  0  0  0  0
   -3.9654   15.7526  -11.0614 H   0  0  0  0  0  0  0  0  0  0  0  0
   -3.3451   15.2065  -12.6563 H   0  0  0  0  0  0  0  0  0  0  0  0
   -5.4494   11.7544  -12.1998 H   0  0  0  0  0  0  0  0  0  0  0  0
   -8.7298   10.7663  -13.3920 H   0  0  0  0  0  0  0  0  0  0  0  0
   -7.2340    9.8162  -13.6862 H   0  0  0  0  0  0  0  0  0  0  0  0
   -6.0607   12.2852   -9.8870 H   0  0  0  0  0  0  0  0  0  0  0  0
   -8.0906   10.5553   -7.5885 H   0  0  0  0  0  0  0  0  0  0  0  0
   -7.3891    8.9020   -7.5556 H   0  0  0  0  0  0  0  0  0  0  0  0
   -4.8892    8.7741   -8.4833 H   0  0  0  0  0  0  0  0  0  0  0  0
   -2.4600   12.0040   -7.0537 H   0  0  0  0  0  0  0  0  0  0  0  0
   -2.6581    9.7501   -8.0474 H   0  0  0  0  0  0  0  0  0  0  0  0
   -6.7366   12.3128   -6.9153 H   0  0  0  0  0  0  0  0  0  0  0  0
   -4.4364   14.4418   -7.1316 H   0  0  0  0  0  0  0  0  0  0  0  0
   -5.3317   13.8902   -5.6754 H   0  0  0  0  0  0  0  0  0  0  0  0
   -3.5409   13.7615   -5.7311 H   0  0  0  0  0  0  0  0  0  0  0  0
  1  2  1  0  0  0  0
  1  3  1  0  0  0  0
  1  4  1  0  0  0  0
  2  5  1  0  0  0  0
  3  6  1  0  0  0  0
  5  6  1  0  0  0  0
  6 12  1  0  0  0  0
  7  8  1  0  0  0  0
  7 10  1  0  0  0  0
  7 12  1  0  0  0  0
  8  9  1  0  0  0  0
  8 11  2  0  0  0  0
  9 15  1  0  0  0  0
 10 14  2  0  0  0  0
 12 13  2  0  0  0  0
 14 15  1  0  0  0  0
 14 18  1  0  0  0  0
 15 16  2  0  0  0  0
 16 17  1  0  0  0  0
 17 18  2  0  0  0  0
 18 19  1  0  0  0  0
 19 20  1  0  0  0  0
 20 21  2  0  0  0  0
 20 25  1  0  0  0  0
 21 24  1  0  0  0  0
 22 23  1  0  0  0  0
 22 24  2  0  0  0  0
 23 25  2  0  0  0  0
 23 26  1  0  0  0  0
  1 27  1  0  0  0  0
  2 28  1  0  0  0  0
  2 29  1  0  0  0  0
  3 30  1  0  0  0  0
  3 31  1  0  0  0  0
  4 32  1  0  0  0  0
  5 33  1  0  0  0  0
  5 34  1  0  0  0  0
  7 35  1  0  0  0  0
  9 36  1  0  0  0  0
  9 37  1  0  0  0  0
 10 38  1  0  0  0  0
 19 39  1  0  0  0  0
 19 40  1  0  0  0  0
 21 41  1  0  0  0  0
 22 42  1  0  0  0  0
 24 43  1  0  0  0  0
 25 44  1  0  0  0  0
 26 45  1  0  0  0  0
 26 46  1  0  0  0  0
 26 47  1  0  0  0  0
M  END
> <Name>
13

> <IC50[uM]>
0.006

$$$$
13
  -OEChem-05192314333D
 Structure written by MMmdl.
 47 50  0     1  0  0  0  0  0999 V2000
   -2.2088   12.9419  -10.9697 C   0  0  1  0  0  0  0  0  0  0  0  0
   -2.1904   14.4671  -10.9424 C   0  0  0  0  0  0  0  0  0  0  0  0
   -3.6992   12.5876  -10.8377 C   0  0  0  0  0  0  0  0  0  0  0  0
   -1.6826   12.4744  -12.1795 O   0  0  0  0  0  0  0  0  0  0  0  0
   -3.5107   14.9139  -11.6089 C   0  0  0  0  0  0  0  0  0  0  0  0
   -4.3443   13.7200  -11.5243 N   0  0  0  0  0  0  0  0  0  0  0  0
   -6.3525   12.3601  -12.0338 C   0  0  0  0  0  0  0  0  0  0  0  0
   -6.9727   11.7556  -13.1375 C   0  0  0  0  0  0  0  0  0  0  0  0
   -7.7097   10.5633  -13.0339 C   0  0  0  0  0  0  0  0  0  0  0  0
   -6.5001   11.8056  -10.7491 C   0  0  0  0  0  0  0  0  0  0  0  0
   -6.8506   12.3073  -14.3824 O   0  0  0  0  0  0  0  0  0  0  0  0
   -5.5377   13.6382  -12.2001 C   0  0  0  0  0  0  0  0  0  0  0  0
   -5.9500   14.5444  -12.9177 O   0  0  0  0  0  0  0  0  0  0  0  0
   -7.2308   10.6159  -10.6131 C   0  0  0  0  0  0  0  0  0  0  0  0
   -7.8083   10.0113  -11.7524 C   0  0  0  0  0  0  0  0  0  0  0  0
   -8.4200    8.8675  -11.2880 N   0  0  0  0  0  0  0  0  0  0  0  0
   -8.2847    8.7400   -9.9757 N   0  0  0  0  0  0  0  0  0  0  0  0
   -7.6047    9.7473   -9.5145 C   0  0  0  0  0  0  0  0  0  0  0  0
   -7.3264    9.8951   -8.0245 C   0  0  0  0  0  0  0  0  0  0  0  0
   -5.9604   10.4805   -7.7353 C   0  0  0  0  0  0  0  0  0  0  0  0
   -4.8075    9.7596   -8.0491 C   0  0  0  0  0  0  0  0  0  0  0  0
   -3.4358   11.5809   -7.2415 C   0  0  0  0  0  0  0  0  0  0  0  0
   -4.5835   12.3061   -6.9225 C   0  0  0  0  0  0  0  0  0  0  0  0
   -3.5481   10.3107   -7.8024 C   0  0  0  0  0  0  0  0  0  0  0  0
   -5.8471   11.7541   -7.1666 C   0  0  0  0  0  0  0  0  0  0  0  0
   -4.4650   13.6954   -6.3241 C   0  0  0  0  0  0  0  0  0  0  0  0
   -1.6558   12.5461  -10.1051 H   0  0  0  0  0  0  0  0  0  0  0  0
   -2.1418   14.8314   -9.9056 H   0  0  0  0  0  0  0  0  0  0  0  0
   -1.3273   14.8503  -11.5065 H   0  0  0  0  0  0  0  0  0  0  0  0
   -3.9292   11.6343  -11.3361 H   0  0  0  0  0  0  0  0  0  0  0  0
   -4.0052   12.5329   -9.7825 H   0  0  0  0  0  0  0  0  0  0  0  0
   -1.6986   11.5246  -12.1863 H   0  0  0  0  0  0  0  0  0  0  0  0
   -3.9654   15.7526  -11.0614 H   0  0  0  0  0  0  0  0  0  0  0  0
   -3.3451   15.2065  -12.6563 H   0  0  0  0  0  0  0  0  0  0  0  0
   -8.7298   10.7663  -13.3920 H   0  0  0  0  0  0  0  0  0  0  0  0
   -7.2340    9.8162  -13.6862 H   0  0  0  0  0  0  0  0  0  0  0  0
   -6.0607   12.2852   -9.8870 H   0  0  0  0  0  0  0  0  0  0  0  0
   -6.3117   10.0311  -10.7657 H   0  0  0  0  0  0  0  0  0  0  0  0
   -8.0906   10.5553   -7.5885 H   0  0  0  0  0  0  0  0  0  0  0  0
   -7.3891    8.9020   -7.5556 H   0  0  0  0  0  0  0  0  0  0  0  0
   -4.8892    8.7741   -8.4833 H   0  0  0  0  0  0  0  0  0  0  0  0
   -2.4600   12.0040   -7.0537 H   0  0  0  0  0  0  0  0  0  0  0  0
   -2.6581    9.7501   -8.0474 H   0  0  0  0  0  0  0  0  0  0  0  0
   -6.7366   12.3128   -6.9153 H   0  0  0  0  0  0  0  0  0  0  0  0
   -4.4364   14.4418   -7.1316 H   0  0  0  0  0  0  0  0  0  0  0  0
   -5.3317   13.8902   -5.6754 H   0  0  0  0  0  0  0  0  0  0  0  0
   -3.5409   13.7615   -5.7311 H   0  0  0  0  0  0  0  0  0  0  0  0
  1  2  1  0  0  0  0
  1  3  1  0  0  0  0
  1  4  1  0  0  0  0
  2  5  1  0  0  0  0
  3  6  1  0  0  0  0
  5  6  1  0  0  0  0
  6 12  1  0  0  0  0
  7  8  1  0  0  0  0
  7 10  2  0  0  0  0
  7 12  1  0  0  0  0
  8  9  1  0  0  0  0
  8 11  2  0  0  0  0
  9 15  1  0  0  0  0
 10 14  1  0  0  0  0
 12 13  2  0  0  0  0
 14 15  1  0  0  0  0
 14 18  1  0  0  0  0
 15 16  2  0  0  0  0
 16 17  1  0  0  0  0
 17 18  2  0  0  0  0
 18 19  1  0  0  0  0
 19 20  1  0  0  0  0
 20 21  2  0  0  0  0
 20 25  1  0  0  0  0
 21 24  1  0  0  0  0
 22 23  1  0  0  0  0
 22 24  2  0  0  0  0
 23 25  2  0  0  0  0
 23 26  1  0  0  0  0
  1 27  1  0  0  0  0
  2 28  1  0  0  0  0
  2 29  1  0  0  0  0
  3 30  1  0  0  0  0
  3 31  1  0  0  0  0
  4 32  1  0  0  0  0
  5 33  1  0  0  0  0
  5 34  1  0  0  0  0
  9 35  1  0  0  0  0
  9 36  1  0  0  0  0
 10 37  1  0  0  0  0
 14 38  1  0  0  0  0
 19 39  1  0  0  0  0
 19 40  1  0  0  0  0
 21 41  1  0  0  0  0
 22 42  1  0  0  0  0
 24 43  1  0  0  0  0
 25 44  1  0  0  0  0
 26 45  1  0  0  0  0
 26 46  1  0  0  0  0
 26 47  1  0  0  0  0
M  END
> <Name>
13

> <IC50[uM]>
0.006

$$$$
13
  -OEChem-05192314333D
 Structure written by MMmdl.
 47 50  0     1  0  0  0  0  0999 V2000
   -2.2088   12.9419  -10.9697 C   0  0  1  0  0  0  0  0  0  0  0  0
   -2.1904   14.4671  -10.9424 C   0  0  0  0  0  0  0  0  0  0  0  0
   -3.6992   12.5876  -10.8377 C   0  0  0  0  0  0  0  0  0  0  0  0
   -1.6826   12.4744  -12.1795 O   0  0  0  0  0  0  0  0  0  0  0  0
   -3.5107   14.9139  -11.6089 C   0  0  0  0  0  0  0  0  0  0  0  0
   -4.3443   13.7200  -11.5243 N   0  0  0  0  0  0  0  0  0  0  0  0
   -6.3525   12.3601  -12.0338 C   0  0  0  0  0  0  0  0  0  0  0  0
   -6.9727   11.7556  -13.1375 C   0  0  0  0  0  0  0  0  0  0  0  0
   -7.7097   10.5633  -13.0339 C   0  0  0  0  0  0  0  0  0  0  0  0
   -6.5001   11.8056  -10.7491 C   0  0  0  0  0  0  0  0  0  0  0  0
   -6.8506   12.3073  -14.3824 O   0  0  0  0  0  0  0  0  0  0  0  0
   -5.5377   13.6382  -12.2001 C   0  0  0  0  0  0  0  0  0  0  0  0
   -5.9500   14.5444  -12.9177 O   0  0  0  0  0  0  0  0  0  0  0  0
   -7.2308   10.6159  -10.6131 C   0  0  0  0  0  0  0  0  0  0  0  0
   -7.8083   10.0113  -11.7524 C   0  0  0  0  0  0  0  0  0  0  0  0
   -8.4200    8.8675  -11.2880 N   0  0  0  0  0  0  0  0  0  0  0  0
   -8.2847    8.7400   -9.9757 N   0  0  0  0  0  0  0  0  0  0  0  0
   -7.6047    9.7473   -9.5145 C   0  0  0  0  0  0  0  0  0  0  0  0
   -7.3264    9.8951   -8.0245 C   0  0  0  0  0  0  0  0  0  0  0  0
   -5.9604   10.4805   -7.7353 C   0  0  0  0  0  0  0  0  0  0  0  0
   -4.8075    9.7596   -8.0491 C   0  0  0  0  0  0  0  0  0  0  0  0
   -3.4358   11.5809   -7.2415 C   0  0  0  0  0  0  0  0  0  0  0  0
   -4.5835   12.3061   -6.9225 C   0  0  0  0  0  0  0  0  0  0  0  0
   -3.5481   10.3107   -7.8024 C   0  0  0  0  0  0  0  0  0  0  0  0
   -5.8471   11.7541   -7.1666 C   0  0  0  0  0  0  0  0  0  0  0  0
   -4.4650   13.6954   -6.3241 C   0  0  0  0  0  0  0  0  0  0  0  0
   -1.6558   12.5461  -10.1051 H   0  0  0  0  0  0  0  0  0  0  0  0
   -2.1418   14.8314   -9.9056 H   0  0  0  0  0  0  0  0  0  0  0  0
   -1.3273   14.8503  -11.5065 H   0  0  0  0  0  0  0  0  0  0  0  0
   -3.9292   11.6343  -11.3361 H   0  0  0  0  0  0  0  0  0  0  0  0
   -4.0052   12.5329   -9.7825 H   0  0  0  0  0  0  0  0  0  0  0  0
   -1.6986   11.5246  -12.1863 H   0  0  0  0  0  0  0  0  0  0  0  0
   -3.9654   15.7526  -11.0614 H   0  0  0  0  0  0  0  0  0  0  0  0
   -3.3451   15.2065  -12.6563 H   0  0  0  0  0  0  0  0  0  0  0  0
   -8.1726   10.1006  -13.8930 H   0  0  0  0  0  0  0  0  0  0  0  0
   -6.0607   12.2852   -9.8870 H   0  0  0  0  0  0  0  0  0  0  0  0
   -6.5242   13.1961  -14.3048 H   0  0  0  0  0  0  0  0  0  0  0  0
   -8.0295    9.6121   -7.2551 H   0  0  0  0  0  0  0  0  0  0  0  0
   -4.8582    8.8181   -7.4825 H   0  0  0  0  0  0  0  0  0  0  0  0
   -4.8529    9.5421   -9.1264 H   0  0  0  0  0  0  0  0  0  0  0  0
   -2.4600   12.0040   -7.0537 H   0  0  0  0  0  0  0  0  0  0  0  0
   -4.5836   11.8682   -5.9134 H   0  0  0  0  0  0  0  0  0  0  0  0
   -2.6581    9.7501   -8.0474 H   0  0  0  0  0  0  0  0  0  0  0  0
   -6.7366   12.3128   -6.9153 H   0  0  0  0  0  0  0  0  0  0  0  0
   -5.4700   14.1039   -6.1424 H   0  0  0  0  0  0  0  0  0  0  0  0
   -3.9148   13.6392   -5.3732 H   0  0  0  0  0  0  0  0  0  0  0  0
   -3.9239   14.3505   -7.0227 H   0  0  0  0  0  0  0  0  0  0  0  0
  1  2  1  0  0  0  0
  1  3  1  0  0  0  0
  1  4  1  0  0  0  0
  2  5  1  0  0  0  0
  3  6  1  0  0  0  0
  5  6  1  0  0  0  0
  6 12  1  0  0  0  0
  7  8  2  0  0  0  0
  7 10  1  0  0  0  0
  7 12  1  0  0  0  0
  8  9  1  0  0  0  0
  8 11  1  0  0  0  0
  9 15  2  0  0  0  0
 10 14  2  0  0  0  0
 12 13  2  0  0  0  0
 14 15  1  0  0  0  0
 14 18  1  0  0  0  0
 15 16  1  0  0  0  0
 16 17  2  0  0  0  0
 17 18  1  0  0  0  0
 18 19  2  0  0  0  0
 19 20  1  0  0  0  0
 20 21  1  0  0  0  0
 20 25  2  0  0  0  0
 21 24  1  0  0  0  0
 22 23  1  0  0  0  0
 22 24  2  0  0  0  0
 23 25  1  0  0  0  0
 23 26  1  0  0  0  0
  1 27  1  0  0  0  0
  2 28  1  0  0  0  0
  2 29  1  0  0  0  0
  3 30  1  0  0  0  0
  3 31  1  0  0  0  0
  4 32  1  0  0  0  0
  5 33  1  0  0  0  0
  5 34  1  0  0  0  0
  9 35  1  0  0  0  0
 10 36  1  0  0  0  0
 11 37  1  0  0  0  0
 19 38  1  0  0  0  0
 21 39  1  0  0  0  0
 21 40  1  0  0  0  0
 22 41  1  0  0  0  0
 23 42  1  0  0  0  0
 24 43  1  0  0  0  0
 25 44  1  0  0  0  0
 26 45  1  0  0  0  0
 26 46  1  0  0  0  0
 26 47  1  0  0  0  0
M  END
> <Name>
13

> <IC50[uM]>
0.006

$$$$
13
  -OEChem-05192314333D
 Structure written by MMmdl.
 47 50  0     1  0  0  0  0  0999 V2000
   -2.2088   12.9419  -10.9697 C   0  0  1  0  0  0  0  0  0  0  0  0
   -2.1904   14.4671  -10.9424 C   0  0  0  0  0  0  0  0  0  0  0  0
   -3.6992   12.5876  -10.8377 C   0  0  0  0  0  0  0  0  0  0  0  0
   -1.6826   12.4744  -12.1795 O   0  0  0  0  0  0  0  0  0  0  0  0
   -3.5107   14.9139  -11.6089 C   0  0  0  0  0  0  0  0  0  0  0  0
   -4.3443   13.7200  -11.5243 N   0  0  0  0  0  0  0  0  0  0  0  0
   -6.3525   12.3601  -12.0338 C   0  0  0  0  0  0  0  0  0  0  0  0
   -6.9727   11.7556  -13.1375 C   0  0  0  0  0  0  0  0  0  0  0  0
   -7.7097   10.5633  -13.0339 C   0  0  0  0  0  0  0  0  0  0  0  0
   -6.5001   11.8056  -10.7491 C   0  0  0  0  0  0  0  0  0  0  0  0
   -6.8506   12.3073  -14.3824 O   0  0  0  0  0  0  0  0  0  0  0  0
   -5.5377   13.6382  -12.2001 C   0  0  0  0  0  0  0  0  0  0  0  0
   -5.9500   14.5444  -12.9177 O   0  0  0  0  0  0  0  0  0  0  0  0
   -7.2308   10.6159  -10.6131 C   0  0  0  0  0  0  0  0  0  0  0  0
   -7.8083   10.0113  -11.7524 C   0  0  0  0  0  0  0  0  0  0  0  0
   -8.4200    8.8675  -11.2880 N   0  0  0  0  0  0  0  0  0  0  0  0
   -8.2847    8.7400   -9.9757 N   0  0  0  0  0  0  0  0  0  0  0  0
   -7.6047    9.7473   -9.5145 C   0  0  0  0  0  0  0  0  0  0  0  0
   -7.3264    9.8951   -8.0245 C   0  0  0  0  0  0  0  0  0  0  0  0
   -5.9604   10.4805   -7.7353 C   0  0  0  0  0  0  0  0  0  0  0  0
   -4.8075    9.7596   -8.0491 C   0  0  0  0  0  0  0  0  0  0  0  0
   -3.4358   11.5809   -7.2415 C   0  0  0  0  0  0  0  0  0  0  0  0
   -4.5835   12.3061   -6.9225 C   0  0  0  0  0  0  0  0  0  0  0  0
   -3.5481   10.3107   -7.8024 C   0  0  0  0  0  0  0  0  0  0  0  0
   -5.8471   11.7541   -7.1666 C   0  0  0  0  0  0  0  0  0  0  0  0
   -4.4650   13.6954   -6.3241 C   0  0  0  0  0  0  0  0  0  0  0  0
   -1.6558   12.5461  -10.1051 H   0  0  0  0  0  0  0  0  0  0  0  0
   -2.1418   14.8314   -9.9056 H   0  0  0  0  0  0  0  0  0  0  0  0
   -1.3273   14.8503  -11.5065 H   0  0  0  0  0  0  0  0  0  0  0  0
   -3.9292   11.6343  -11.3361 H   0  0  0  0  0  0  0  0  0  0  0  0
   -4.0052   12.5329   -9.7825 H   0  0  0  0  0  0  0  0  0  0  0  0
   -1.6986   11.5246  -12.1863 H   0  0  0  0  0  0  0  0  0  0  0  0
   -3.9654   15.7526  -11.0614 H   0  0  0  0  0  0  0  0  0  0  0  0
   -3.3451   15.2065  -12.6563 H   0  0  0  0  0  0  0  0  0  0  0  0
   -8.1726   10.1006  -13.8930 H   0  0  0  0  0  0  0  0  0  0  0  0
   -6.0607   12.2852   -9.8870 H   0  0  0  0  0  0  0  0  0  0  0  0
   -6.5242   13.1961  -14.3048 H   0  0  0  0  0  0  0  0  0  0  0  0
   -8.0295    9.6121   -7.2551 H   0  0  0  0  0  0  0  0  0  0  0  0
   -5.9749   10.0291   -6.7323 H   0  0  0  0  0  0  0  0  0  0  0  0
   -4.8582    8.8181   -7.4825 H   0  0  0  0  0  0  0  0  0  0  0  0
   -4.8529    9.5421   -9.1264 H   0  0  0  0  0  0  0  0  0  0  0  0
   -2.4600   12.0040   -7.0537 H   0  0  0  0  0  0  0  0  0  0  0  0
   -2.6581    9.7501   -8.0474 H   0  0  0  0  0  0  0  0  0  0  0  0
   -6.7366   12.3128   -6.9153 H   0  0  0  0  0  0  0  0  0  0  0  0
   -5.4700   14.1039   -6.1424 H   0  0  0  0  0  0  0  0  0  0  0  0
   -3.9148   13.6392   -5.3732 H   0  0  0  0  0  0  0  0  0  0  0  0
   -3.9239   14.3505   -7.0227 H   0  0  0  0  0  0  0  0  0  0  0  0
  1  2  1  0  0  0  0
  1  3  1  0  0  0  0
  1  4  1  0  0  0  0
  2  5  1  0  0  0  0
  3  6  1  0  0  0  0
  5  6  1  0  0  0  0
  6 12  1  0  0  0  0
  7  8  2  0  0  0  0
  7 10  1  0  0  0  0
  7 12  1  0  0  0  0
  8  9  1  0  0  0  0
  8 11  1  0  0  0  0
  9 15  2  0  0  0  0
 10 14  2  0  0  0  0
 12 13  2  0  0  0  0
 14 15  1  0  0  0  0
 14 18  1  0  0  0  0
 15 16  1  0  0  0  0
 16 17  2  0  0  0  0
 17 18  1  0  0  0  0
 18 19  2  0  0  0  0
 19 20  1  0  0  0  0
 20 21  1  0  0  0  0
 20 25  1  0  0  0  0
 21 24  1  0  0  0  0
 22 23  1  0  0  0  0
 22 24  2  0  0  0  0
 23 25  2  0  0  0  0
 23 26  1  0  0  0  0
  1 27  1  0  0  0  0
  2 28  1  0  0  0  0
  2 29  1  0  0  0  0
  3 30  1  0  0  0  0
  3 31  1  0  0  0  0
  4 32  1  0  0  0  0
  5 33  1  0  0  0  0
  5 34  1  0  0  0  0
  9 35  1  0  0  0  0
 10 36  1  0  0  0  0
 11 37  1  0  0  0  0
 19 38  1  0  0  0  0
 20 39  1  0  0  0  0
 21 40  1  0  0  0  0
 21 41  1  0  0  0  0
 22 42  1  0  0  0  0
 24 43  1  0  0  0  0
 25 44  1  0  0  0  0
 26 45  1  0  0  0  0
 26 46  1  0  0  0  0
 26 47  1  0  0  0  0
M  END
> <Name>
13

> <IC50[uM]>
0.006

$$$$
13
  -OEChem-05192314333D
 Structure written by MMmdl.
 47 50  0     1  0  0  0  0  0999 V2000
   -2.2088   12.9419  -10.9697 C   0  0  1  0  0  0  0  0  0  0  0  0
   -2.1904   14.4671  -10.9424 C   0  0  0  0  0  0  0  0  0  0  0  0
   -3.6992   12.5876  -10.8377 C   0  0  0  0  0  0  0  0  0  0  0  0
   -1.6826   12.4744  -12.1795 O   0  0  0  0  0  0  0  0  0  0  0  0
   -3.5107   14.9139  -11.6089 C   0  0  0  0  0  0  0  0  0  0  0  0
   -4.3443   13.7200  -11.5243 N   0  0  0  0  0  0  0  0  0  0  0  0
   -6.3525   12.3601  -12.0338 C   0  0  0  0  0  0  0  0  0  0  0  0
   -6.9727   11.7556  -13.1375 C   0  0  0  0  0  0  0  0  0  0  0  0
   -7.7097   10.5633  -13.0339 C   0  0  0  0  0  0  0  0  0  0  0  0
   -6.5001   11.8056  -10.7491 C   0  0  0  0  0  0  0  0  0  0  0  0
   -6.8506   12.3073  -14.3824 O   0  0  0  0  0  0  0  0  0  0  0  0
   -5.5377   13.6382  -12.2001 C   0  0  0  0  0  0  0  0  0  0  0  0
   -5.9500   14.5444  -12.9177 O   0  0  0  0  0  0  0  0  0  0  0  0
   -7.2308   10.6159  -10.6131 C   0  0  0  0  0  0  0  0  0  0  0  0
   -7.8083   10.0113  -11.7524 C   0  0  0  0  0  0  0  0  0  0  0  0
   -8.4200    8.8675  -11.2880 N   0  0  0  0  0  0  0  0  0  0  0  0
   -8.2847    8.7400   -9.9757 N   0  0  0  0  0  0  0  0  0  0  0  0
   -7.6047    9.7473   -9.5145 C   0  0  0  0  0  0  0  0  0  0  0  0
   -7.3264    9.8951   -8.0245 C   0  0  0  0  0  0  0  0  0  0  0  0
   -5.9604   10.4805   -7.7353 C   0  0  0  0  0  0  0  0  0  0  0  0
   -4.8075    9.7596   -8.0491 C   0  0  0  0  0  0  0  0  0  0  0  0
   -3.4358   11.5809   -7.2415 C   0  0  0  0  0  0  0  0  0  0  0  0
   -4.5835   12.3061   -6.9225 C   0  0  0  0  0  0  0  0  0  0  0  0
   -3.5481   10.3107   -7.8024 C   0  0  0  0  0  0  0  0  0  0  0  0
   -5.8471   11.7541   -7.1666 C   0  0  0  0  0  0  0  0  0  0  0  0
   -4.4650   13.6954   -6.3241 C   0  0  0  0  0  0  0  0  0  0  0  0
   -1.6558   12.5461  -10.1051 H   0  0  0  0  0  0  0  0  0  0  0  0
   -2.1418   14.8314   -9.9056 H   0  0  0  0  0  0  0  0  0  0  0  0
   -1.3273   14.8503  -11.5065 H   0  0  0  0  0  0  0  0  0  0  0  0
   -3.9292   11.6343  -11.3361 H   0  0  0  0  0  0  0  0  0  0  0  0
   -4.0052   12.5329   -9.7825 H   0  0  0  0  0  0  0  0  0  0  0  0
   -1.6986   11.5246  -12.1863 H   0  0  0  0  0  0  0  0  0  0  0  0
   -3.9654   15.7526  -11.0614 H   0  0  0  0  0  0  0  0  0  0  0  0
   -3.3451   15.2065  -12.6563 H   0  0  0  0  0  0  0  0  0  0  0  0
   -8.1726   10.1006  -13.8930 H   0  0  0  0  0  0  0  0  0  0  0  0
   -6.0607   12.2852   -9.8870 H   0  0  0  0  0  0  0  0  0  0  0  0
   -6.5242   13.1961  -14.3048 H   0  0  0  0  0  0  0  0  0  0  0  0
   -6.6702    9.1804   -9.6379 H   0  0  0  0  0  0  0  0  0  0  0  0
   -8.0295    9.6121   -7.2551 H   0  0  0  0  0  0  0  0  0  0  0  0
   -4.8582    8.8181   -7.4825 H   0  0  0  0  0  0  0  0  0  0  0  0
   -4.8529    9.5421   -9.1264 H   0  0  0  0  0  0  0  0  0  0  0  0
   -2.4600   12.0040   -7.0537 H   0  0  0  0  0  0  0  0  0  0  0  0
   -2.6581    9.7501   -8.0474 H   0  0  0  0  0  0  0  0  0  0  0  0
   -6.7366   12.3128   -6.9153 H   0  0  0  0  0  0  0  0  0  0  0  0
   -5.4700   14.1039   -6.1424 H   0  0  0  0  0  0  0  0  0  0  0  0
   -3.9148   13.6392   -5.3732 H   0  0  0  0  0  0  0  0  0  0  0  0
   -3.9239   14.3505   -7.0227 H   0  0  0  0  0  0  0  0  0  0  0  0
  1  2  1  0  0  0  0
  1  3  1  0  0  0  0
  1  4  1  0  0  0  0
  2  5  1  0  0  0  0
  3  6  1  0  0  0  0
  5  6  1  0  0  0  0
  6 12  1  0  0  0  0
  7  8  2  0  0  0  0
  7 10  1  0  0  0  0
  7 12  1  0  0  0  0
  8  9  1  0  0  0  0
  8 11  1  0  0  0  0
  9 15  2  0  0  0  0
 10 14  2  0  0  0  0
 12 13  2  0  0  0  0
 14 15  1  0  0  0  0
 14 18  1  0  0  0  0
 15 16  1  0  0  0  0
 16 17  2  0  0  0  0
 17 18  1  0  0  0  0
 18 19  1  0  0  0  0
 19 20  2  0  0  0  0
 20 21  1  0  0  0  0
 20 25  1  0  0  0  0
 21 24  1  0  0  0  0
 22 23  1  0  0  0  0
 22 24  2  0  0  0  0
 23 25  2  0  0  0  0
 23 26  1  0  0  0  0
  1 27  1  0  0  0  0
  2 28  1  0  0  0  0
  2 29  1  0  0  0  0
  3 30  1  0  0  0  0
  3 31  1  0  0  0  0
  4 32  1  0  0  0  0
  5 33  1  0  0  0  0
  5 34  1  0  0  0  0
  9 35  1  0  0  0  0
 10 36  1  0  0  0  0
 11 37  1  0  0  0  0
 18 38  1  0  0  0  0
 19 39  1  0  0  0  0
 21 40  1  0  0  0  0
 21 41  1  0  0  0  0
 22 42  1  0  0  0  0
 24 43  1  0  0  0  0
 25 44  1  0  0  0  0
 26 45  1  0  0  0  0
 26 46  1  0  0  0  0
 26 47  1  0  0  0  0
M  END
> <Name>
13

> <IC50[uM]>
0.006

$$$$
13
  -OEChem-05192314333D
 Structure written by MMmdl.
 47 50  0     1  0  0  0  0  0999 V2000
   -2.2088   12.9419  -10.9697 C   0  0  1  0  0  0  0  0  0  0  0  0
   -2.1904   14.4671  -10.9424 C   0  0  0  0  0  0  0  0  0  0  0  0
   -3.6992   12.5876  -10.8377 C   0  0  0  0  0  0  0  0  0  0  0  0
   -1.6826   12.4744  -12.1795 O   0  0  0  0  0  0  0  0  0  0  0  0
   -3.5107   14.9139  -11.6089 C   0  0  0  0  0  0  0  0  0  0  0  0
   -4.3443   13.7200  -11.5243 N   0  0  0  0  0  0  0  0  0  0  0  0
   -6.3525   12.3601  -12.0338 C   0  0  0  0  0  0  0  0  0  0  0  0
   -6.9727   11.7556  -13.1375 C   0  0  0  0  0  0  0  0  0  0  0  0
   -7.7097   10.5633  -13.0339 C   0  0  0  0  0  0  0  0  0  0  0  0
   -6.5001   11.8056  -10.7491 C   0  0  0  0  0  0  0  0  0  0  0  0
   -6.8506   12.3073  -14.3824 O   0  0  0  0  0  0  0  0  0  0  0  0
   -5.5377   13.6382  -12.2001 C   0  0  0  0  0  0  0  0  0  0  0  0
   -5.9500   14.5444  -12.9177 O   0  0  0  0  0  0  0  0  0  0  0  0
   -7.2308   10.6159  -10.6131 C   0  0  0  0  0  0  0  0  0  0  0  0
   -7.8083   10.0113  -11.7524 C   0  0  0  0  0  0  0  0  0  0  0  0
   -8.4200    8.8675  -11.2880 N   0  0  0  0  0  0  0  0  0  0  0  0
   -8.2847    8.7400   -9.9757 N   0  0  0  0  0  0  0  0  0  0  0  0
   -7.6047    9.7473   -9.5145 C   0  0  0  0  0  0  0  0  0  0  0  0
   -7.3264    9.8951   -8.0245 C   0  0  0  0  0  0  0  0  0  0  0  0
   -5.9604   10.4805   -7.7353 C   0  0  0  0  0  0  0  0  0  0  0  0
   -4.8075    9.7596   -8.0491 C   0  0  0  0  0  0  0  0  0  0  0  0
   -3.4358   11.5809   -7.2415 C   0  0  0  0  0  0  0  0  0  0  0  0
   -4.5835   12.3061   -6.9225 C   0  0  0  0  0  0  0  0  0  0  0  0
   -3.5481   10.3107   -7.8024 C   0  0  0  0  0  0  0  0  0  0  0  0
   -5.8471   11.7541   -7.1666 C   0  0  0  0  0  0  0  0  0  0  0  0
   -4.4650   13.6954   -6.3241 C   0  0  0  0  0  0  0  0  0  0  0  0
   -1.6558   12.5461  -10.1051 H   0  0  0  0  0  0  0  0  0  0  0  0
   -2.1418   14.8314   -9.9056 H   0  0  0  0  0  0  0  0  0  0  0  0
   -1.3273   14.8503  -11.5065 H   0  0  0  0  0  0  0  0  0  0  0  0
   -3.9292   11.6343  -11.3361 H   0  0  0  0  0  0  0  0  0  0  0  0
   -4.0052   12.5329   -9.7825 H   0  0  0  0  0  0  0  0  0  0  0  0
   -1.6986   11.5246  -12.1863 H   0  0  0  0  0  0  0  0  0  0  0  0
   -3.9654   15.7526  -11.0614 H   0  0  0  0  0  0  0  0  0  0  0  0
   -3.3451   15.2065  -12.6563 H   0  0  0  0  0  0  0  0  0  0  0  0
   -8.1726   10.1006  -13.8930 H   0  0  0  0  0  0  0  0  0  0  0  0
   -6.0607   12.2852   -9.8870 H   0  0  0  0  0  0  0  0  0  0  0  0
   -6.5242   13.1961  -14.3048 H   0  0  0  0  0  0  0  0  0  0  0  0
   -8.0295    9.6121   -7.2551 H   0  0  0  0  0  0  0  0  0  0  0  0
   -4.8582    8.8181   -7.4825 H   0  0  0  0  0  0  0  0  0  0  0  0
   -4.8529    9.5421   -9.1264 H   0  0  0  0  0  0  0  0  0  0  0  0
   -2.4600   12.0040   -7.0537 H   0  0  0  0  0  0  0  0  0  0  0  0
   -3.0270    9.6184   -7.1248 H   0  0  0  0  0  0  0  0  0  0  0  0
   -3.0225   10.3437   -8.7681 H   0  0  0  0  0  0  0  0  0  0  0  0
   -6.7366   12.3128   -6.9153 H   0  0  0  0  0  0  0  0  0  0  0  0
   -5.4700   14.1039   -6.1424 H   0  0  0  0  0  0  0  0  0  0  0  0
   -3.9148   13.6392   -5.3732 H   0  0  0  0  0  0  0  0  0  0  0  0
   -3.9239   14.3505   -7.0227 H   0  0  0  0  0  0  0  0  0  0  0  0
  1  2  1  0  0  0  0
  1  3  1  0  0  0  0
  1  4  1  0  0  0  0
  2  5  1  0  0  0  0
  3  6  1  0  0  0  0
  5  6  1  0  0  0  0
  6 12  1  0  0  0  0
  7  8  2  0  0  0  0
  7 10  1  0  0  0  0
  7 12  1  0  0  0  0
  8  9  1  0  0  0  0
  8 11  1  0  0  0  0
  9 15  2  0  0  0  0
 10 14  2  0  0  0  0
 12 13  2  0  0  0  0
 14 15  1  0  0  0  0
 14 18  1  0  0  0  0
 15 16  1  0  0  0  0
 16 17  2  0  0  0  0
 17 18  1  0  0  0  0
 18 19  2  0  0  0  0
 19 20  1  0  0  0  0
 20 21  1  0  0  0  0
 20 25  2  0  0  0  0
 21 24  1  0  0  0  0
 22 23  2  0  0  0  0
 22 24  1  0  0  0  0
 23 25  1  0  0  0  0
 23 26  1  0  0  0  0
  1 27  1  0  0  0  0
  2 28  1  0  0  0  0
  2 29  1  0  0  0  0
  3 30  1  0  0  0  0
  3 31  1  0  0  0  0
  4 32  1  0  0  0  0
  5 33  1  0  0  0  0
  5 34  1  0  0  0  0
  9 35  1  0  0  0  0
 10 36  1  0  0  0  0
 11 37  1  0  0  0  0
 19 38  1  0  0  0  0
 21 39  1  0  0  0  0
 21 40  1  0  0  0  0
 22 41  1  0  0  0  0
 24 42  1  0  0  0  0
 24 43  1  0  0  0  0
 25 44  1  0  0  0  0
 26 45  1  0  0  0  0
 26 46  1  0  0  0  0
 26 47  1  0  0  0  0
M  END
> <Name>
13

> <IC50[uM]>
0.006

$$$$
13
  -OEChem-05192314333D
 Structure written by MMmdl.
 47 50  0     1  0  0  0  0  0999 V2000
   -2.2088   12.9419  -10.9697 C   0  0  1  0  0  0  0  0  0  0  0  0
   -2.1904   14.4671  -10.9424 C   0  0  0  0  0  0  0  0  0  0  0  0
   -3.6992   12.5876  -10.8377 C   0  0  0  0  0  0  0  0  0  0  0  0
   -1.6826   12.4744  -12.1795 O   0  0  0  0  0  0  0  0  0  0  0  0
   -3.5107   14.9139  -11.6089 C   0  0  0  0  0  0  0  0  0  0  0  0
   -4.3443   13.7200  -11.5243 N   0  0  0  0  0  0  0  0  0  0  0  0
   -6.3525   12.3601  -12.0338 C   0  0  0  0  0  0  0  0  0  0  0  0
   -6.9727   11.7556  -13.1375 C   0  0  0  0  0  0  0  0  0  0  0  0
   -7.7097   10.5633  -13.0339 C   0  0  0  0  0  0  0  0  0  0  0  0
   -6.5001   11.8056  -10.7491 C   0  0  0  0  0  0  0  0  0  0  0  0
   -6.8506   12.3073  -14.3824 O   0  0  0  0  0  0  0  0  0  0  0  0
   -5.5377   13.6382  -12.2001 C   0  0  0  0  0  0  0  0  0  0  0  0
   -5.9500   14.5444  -12.9177 O   0  0  0  0  0  0  0  0  0  0  0  0
   -7.2308   10.6159  -10.6131 C   0  0  0  0  0  0  0  0  0  0  0  0
   -7.8083   10.0113  -11.7524 C   0  0  0  0  0  0  0  0  0  0  0  0
   -8.4200    8.8675  -11.2880 N   0  0  0  0  0  0  0  0  0  0  0  0
   -8.2847    8.7400   -9.9757 N   0  0  0  0  0  0  0  0  0  0  0  0
   -7.6047    9.7473   -9.5145 C   0  0  0  0  0  0  0  0  0  0  0  0
   -7.3264    9.8951   -8.0245 C   0  0  0  0  0  0  0  0  0  0  0  0
   -5.9604   10.4805   -7.7353 C   0  0  0  0  0  0  0  0  0  0  0  0
   -4.8075    9.7596   -8.0491 C   0  0  0  0  0  0  0  0  0  0  0  0
   -3.4358   11.5809   -7.2415 C   0  0  0  0  0  0  0  0  0  0  0  0
   -4.5835   12.3061   -6.9225 C   0  0  0  0  0  0  0  0  0  0  0  0
   -3.5481   10.3107   -7.8024 C   0  0  0  0  0  0  0  0  0  0  0  0
   -5.8471   11.7541   -7.1666 C   0  0  0  0  0  0  0  0  0  0  0  0
   -4.4650   13.6954   -6.3241 C   0  0  0  0  0  0  0  0  0  0  0  0
   -1.6558   12.5461  -10.1051 H   0  0  0  0  0  0  0  0  0  0  0  0
   -2.1418   14.8314   -9.9056 H   0  0  0  0  0  0  0  0  0  0  0  0
   -1.3273   14.8503  -11.5065 H   0  0  0  0  0  0  0  0  0  0  0  0
   -3.9292   11.6343  -11.3361 H   0  0  0  0  0  0  0  0  0  0  0  0
   -4.0052   12.5329   -9.7825 H   0  0  0  0  0  0  0  0  0  0  0  0
   -1.6986   11.5246  -12.1863 H   0  0  0  0  0  0  0  0  0  0  0  0
   -3.9654   15.7526  -11.0614 H   0  0  0  0  0  0  0  0  0  0  0  0
   -3.3451   15.2065  -12.6563 H   0  0  0  0  0  0  0  0  0  0  0  0
   -8.1726   10.1006  -13.8930 H   0  0  0  0  0  0  0  0  0  0  0  0
   -6.0607   12.2852   -9.8870 H   0  0  0  0  0  0  0  0  0  0  0  0
   -6.5242   13.1961  -14.3048 H   0  0  0  0  0  0  0  0  0  0  0  0
   -8.0295    9.6121   -7.2551 H   0  0  0  0  0  0  0  0  0  0  0  0
   -4.8892    8.7741   -8.4833 H   0  0  0  0  0  0  0  0  0  0  0  0
   -2.8612   12.1924   -7.9527 H   0  0  0  0  0  0  0  0  0  0  0  0
   -2.8628   11.4670   -6.3094 H   0  0  0  0  0  0  0  0  0  0  0  0
   -4.5836   11.8682   -5.9134 H   0  0  0  0  0  0  0  0  0  0  0  0
   -2.6581    9.7501   -8.0474 H   0  0  0  0  0  0  0  0  0  0  0  0
   -6.7366   12.3128   -6.9153 H   0  0  0  0  0  0  0  0  0  0  0  0
   -5.4700   14.1039   -6.1424 H   0  0  0  0  0  0  0  0  0  0  0  0
   -3.9148   13.6392   -5.3732 H   0  0  0  0  0  0  0  0  0  0  0  0
   -3.9239   14.3505   -7.0227 H   0  0  0  0  0  0  0  0  0  0  0  0
  1  2  1  0  0  0  0
  1  3  1  0  0  0  0
  1  4  1  0  0  0  0
  2  5  1  0  0  0  0
  3  6  1  0  0  0  0
  5  6  1  0  0  0  0
  6 12  1  0  0  0  0
  7  8  2  0  0  0  0
  7 10  1  0  0  0  0
  7 12  1  0  0  0  0
  8  9  1  0  0  0  0
  8 11  1  0  0  0  0
  9 15  2  0  0  0  0
 10 14  2  0  0  0  0
 12 13  2  0  0  0  0
 14 15  1  0  0  0  0
 14 18  1  0  0  0  0
 15 16  1  0  0  0  0
 16 17  2  0  0  0  0
 17 18  1  0  0  0  0
 18 19  2  0  0  0  0
 19 20  1  0  0  0  0
 20 21  1  0  0  0  0
 20 25  2  0  0  0  0
 21 24  2  0  0  0  0
 22 23  1  0  0  0  0
 22 24  1  0  0  0  0
 23 25  1  0  0  0  0
 23 26  1  0  0  0  0
  1 27  1  0  0  0  0
  2 28  1  0  0  0  0
  2 29  1  0  0  0  0
  3 30  1  0  0  0  0
  3 31  1  0  0  0  0
  4 32  1  0  0  0  0
  5 33  1  0  0  0  0
  5 34  1  0  0  0  0
  9 35  1  0  0  0  0
 10 36  1  0  0  0  0
 11 37  1  0  0  0  0
 19 38  1  0  0  0  0
 21 39  1  0  0  0  0
 22 40  1  0  0  0  0
 22 41  1  0  0  0  0
 23 42  1  0  0  0  0
 24 43  1  0  0  0  0
 25 44  1  0  0  0  0
 26 45  1  0  0  0  0
 26 46  1  0  0  0  0
 26 47  1  0  0  0  0
M  END
> <Name>
13

> <IC50[uM]>
0.006

$$$$
13
  -OEChem-05192314333D
 Structure written by MMmdl.
 47 50  0     1  0  0  0  0  0999 V2000
   -2.2088   12.9419  -10.9697 C   0  0  1  0  0  0  0  0  0  0  0  0
   -2.1904   14.4671  -10.9424 C   0  0  0  0  0  0  0  0  0  0  0  0
   -3.6992   12.5876  -10.8377 C   0  0  0  0  0  0  0  0  0  0  0  0
   -1.6826   12.4744  -12.1795 O   0  0  0  0  0  0  0  0  0  0  0  0
   -3.5107   14.9139  -11.6089 C   0  0  0  0  0  0  0  0  0  0  0  0
   -4.3443   13.7200  -11.5243 N   0  0  0  0  0  0  0  0  0  0  0  0
   -6.3525   12.3601  -12.0338 C   0  0  0  0  0  0  0  0  0  0  0  0
   -6.9727   11.7556  -13.1375 C   0  0  0  0  0  0  0  0  0  0  0  0
   -7.7097   10.5633  -13.0339 C   0  0  0  0  0  0  0  0  0  0  0  0
   -6.5001   11.8056  -10.7491 C   0  0  0  0  0  0  0  0  0  0  0  0
   -6.8506   12.3073  -14.3824 O   0  0  0  0  0  0  0  0  0  0  0  0
   -5.5377   13.6382  -12.2001 C   0  0  0  0  0  0  0  0  0  0  0  0
   -5.9500   14.5444  -12.9177 O   0  0  0  0  0  0  0  0  0  0  0  0
   -7.2308   10.6159  -10.6131 C   0  0  0  0  0  0  0  0  0  0  0  0
   -7.8083   10.0113  -11.7524 C   0  0  0  0  0  0  0  0  0  0  0  0
   -8.4200    8.8675  -11.2880 N   0  0  0  0  0  0  0  0  0  0  0  0
   -8.2847    8.7400   -9.9757 N   0  0  0  0  0  0  0  0  0  0  0  0
   -7.6047    9.7473   -9.5145 C   0  0  0  0  0  0  0  0  0  0  0  0
   -7.3264    9.8951   -8.0245 C   0  0  0  0  0  0  0  0  0  0  0  0
   -5.9604   10.4805   -7.7353 C   0  0  0  0  0  0  0  0  0  0  0  0
   -4.8075    9.7596   -8.0491 C   0  0  0  0  0  0  0  0  0  0  0  0
   -3.4358   11.5809   -7.2415 C   0  0  0  0  0  0  0  0  0  0  0  0
   -4.5835   12.3061   -6.9225 C   0  0  0  0  0  0  0  0  0  0  0  0
   -3.5481   10.3107   -7.8024 C   0  0  0  0  0  0  0  0  0  0  0  0
   -5.8471   11.7541   -7.1666 C   0  0  0  0  0  0  0  0  0  0  0  0
   -4.4650   13.6954   -6.3241 C   0  0  0  0  0  0  0  0  0  0  0  0
   -1.6558   12.5461  -10.1051 H   0  0  0  0  0  0  0  0  0  0  0  0
   -2.1418   14.8314   -9.9056 H   0  0  0  0  0  0  0  0  0  0  0  0
   -1.3273   14.8503  -11.5065 H   0  0  0  0  0  0  0  0  0  0  0  0
   -3.9292   11.6343  -11.3361 H   0  0  0  0  0  0  0  0  0  0  0  0
   -4.0052   12.5329   -9.7825 H   0  0  0  0  0  0  0  0  0  0  0  0
   -1.6986   11.5246  -12.1863 H   0  0  0  0  0  0  0  0  0  0  0  0
   -3.9654   15.7526  -11.0614 H   0  0  0  0  0  0  0  0  0  0  0  0
   -3.3451   15.2065  -12.6563 H   0  0  0  0  0  0  0  0  0  0  0  0
   -8.1726   10.1006  -13.8930 H   0  0  0  0  0  0  0  0  0  0  0  0
   -6.0607   12.2852   -9.8870 H   0  0  0  0  0  0  0  0  0  0  0  0
   -6.5242   13.1961  -14.3048 H   0  0  0  0  0  0  0  0  0  0  0  0
   -8.0295    9.6121   -7.2551 H   0  0  0  0  0  0  0  0  0  0  0  0
   -5.9749   10.0291   -6.7323 H   0  0  0  0  0  0  0  0  0  0  0  0
   -4.8892    8.7741   -8.4833 H   0  0  0  0  0  0  0  0  0  0  0  0
   -2.8612   12.1924   -7.9527 H   0  0  0  0  0  0  0  0  0  0  0  0
   -2.8628   11.4670   -6.3094 H   0  0  0  0  0  0  0  0  0  0  0  0
   -2.6581    9.7501   -8.0474 H   0  0  0  0  0  0  0  0  0  0  0  0
   -6.7366   12.3128   -6.9153 H   0  0  0  0  0  0  0  0  0  0  0  0
   -5.4700   14.1039   -6.1424 H   0  0  0  0  0  0  0  0  0  0  0  0
   -3.9148   13.6392   -5.3732 H   0  0  0  0  0  0  0  0  0  0  0  0
   -3.9239   14.3505   -7.0227 H   0  0  0  0  0  0  0  0  0  0  0  0
  1  2  1  0  0  0  0
  1  3  1  0  0  0  0
  1  4  1  0  0  0  0
  2  5  1  0  0  0  0
  3  6  1  0  0  0  0
  5  6  1  0  0  0  0
  6 12  1  0  0  0  0
  7  8  2  0  0  0  0
  7 10  1  0  0  0  0
  7 12  1  0  0  0  0
  8  9  1  0  0  0  0
  8 11  1  0  0  0  0
  9 15  2  0  0  0  0
 10 14  2  0  0  0  0
 12 13  2  0  0  0  0
 14 15  1  0  0  0  0
 14 18  1  0  0  0  0
 15 16  1  0  0  0  0
 16 17  2  0  0  0  0
 17 18  1  0  0  0  0
 18 19  2  0  0  0  0
 19 20  1  0  0  0  0
 20 21  1  0  0  0  0
 20 25  1  0  0  0  0
 21 24  2  0  0  0  0
 22 23  1  0  0  0  0
 22 24  1  0  0  0  0
 23 25  2  0  0  0  0
 23 26  1  0  0  0  0
  1 27  1  0  0  0  0
  2 28  1  0  0  0  0
  2 29  1  0  0  0  0
  3 30  1  0  0  0  0
  3 31  1  0  0  0  0
  4 32  1  0  0  0  0
  5 33  1  0  0  0  0
  5 34  1  0  0  0  0
  9 35  1  0  0  0  0
 10 36  1  0  0  0  0
 11 37  1  0  0  0  0
 19 38  1  0  0  0  0
 20 39  1  0  0  0  0
 21 40  1  0  0  0  0
 22 41  1  0  0  0  0
 22 42  1  0  0  0  0
 24 43  1  0  0  0  0
 25 44  1  0  0  0  0
 26 45  1  0  0  0  0
 26 46  1  0  0  0  0
 26 47  1  0  0  0  0
M  END
> <Name>
13

> <IC50[uM]>
0.006

$$$$
13
  -OEChem-05192314333D
 Structure written by MMmdl.
 47 50  0     1  0  0  0  0  0999 V2000
   -2.2088   12.9419  -10.9697 C   0  0  1  0  0  0  0  0  0  0  0  0
   -2.1904   14.4671  -10.9424 C   0  0  0  0  0  0  0  0  0  0  0  0
   -3.6992   12.5876  -10.8377 C   0  0  0  0  0  0  0  0  0  0  0  0
   -1.6826   12.4744  -12.1795 O   0  0  0  0  0  0  0  0  0  0  0  0
   -3.5107   14.9139  -11.6089 C   0  0  0  0  0  0  0  0  0  0  0  0
   -4.3443   13.7200  -11.5243 N   0  0  0  0  0  0  0  0  0  0  0  0
   -6.3525   12.3601  -12.0338 C   0  0  0  0  0  0  0  0  0  0  0  0
   -6.9727   11.7556  -13.1375 C   0  0  0  0  0  0  0  0  0  0  0  0
   -7.7097   10.5633  -13.0339 C   0  0  0  0  0  0  0  0  0  0  0  0
   -6.5001   11.8056  -10.7491 C   0  0  0  0  0  0  0  0  0  0  0  0
   -6.8506   12.3073  -14.3824 O   0  0  0  0  0  0  0  0  0  0  0  0
   -5.5377   13.6382  -12.2001 C   0  0  0  0  0  0  0  0  0  0  0  0
   -5.9500   14.5444  -12.9177 O   0  0  0  0  0  0  0  0  0  0  0  0
   -7.2308   10.6159  -10.6131 C   0  0  0  0  0  0  0  0  0  0  0  0
   -7.8083   10.0113  -11.7524 C   0  0  0  0  0  0  0  0  0  0  0  0
   -8.4200    8.8675  -11.2880 N   0  0  0  0  0  0  0  0  0  0  0  0
   -8.2847    8.7400   -9.9757 N   0  0  0  0  0  0  0  0  0  0  0  0
   -7.6047    9.7473   -9.5145 C   0  0  0  0  0  0  0  0  0  0  0  0
   -7.3264    9.8951   -8.0245 C   0  0  0  0  0  0  0  0  0  0  0  0
   -5.9604   10.4805   -7.7353 C   0  0  0  0  0  0  0  0  0  0  0  0
   -4.8075    9.7596   -8.0491 C   0  0  0  0  0  0  0  0  0  0  0  0
   -3.4358   11.5809   -7.2415 C   0  0  0  0  0  0  0  0  0  0  0  0
   -4.5835   12.3061   -6.9225 C   0  0  0  0  0  0  0  0  0  0  0  0
   -3.5481   10.3107   -7.8024 C   0  0  0  0  0  0  0  0  0  0  0  0
   -5.8471   11.7541   -7.1666 C   0  0  0  0  0  0  0  0  0  0  0  0
   -4.4650   13.6954   -6.3241 C   0  0  0  0  0  0  0  0  0  0  0  0
   -1.6558   12.5461  -10.1051 H   0  0  0  0  0  0  0  0  0  0  0  0
   -2.1418   14.8314   -9.9056 H   0  0  0  0  0  0  0  0  0  0  0  0
   -1.3273   14.8503  -11.5065 H   0  0  0  0  0  0  0  0  0  0  0  0
   -3.9292   11.6343  -11.3361 H   0  0  0  0  0  0  0  0  0  0  0  0
   -4.0052   12.5329   -9.7825 H   0  0  0  0  0  0  0  0  0  0  0  0
   -1.6986   11.5246  -12.1863 H   0  0  0  0  0  0  0  0  0  0  0  0
   -3.9654   15.7526  -11.0614 H   0  0  0  0  0  0  0  0  0  0  0  0
   -3.3451   15.2065  -12.6563 H   0  0  0  0  0  0  0  0  0  0  0  0
   -8.1726   10.1006  -13.8930 H   0  0  0  0  0  0  0  0  0  0  0  0
   -6.0607   12.2852   -9.8870 H   0  0  0  0  0  0  0  0  0  0  0  0
   -6.5242   13.1961  -14.3048 H   0  0  0  0  0  0  0  0  0  0  0  0
   -6.6702    9.1804   -9.6379 H   0  0  0  0  0  0  0  0  0  0  0  0
   -8.0295    9.6121   -7.2551 H   0  0  0  0  0  0  0  0  0  0  0  0
   -4.8892    8.7741   -8.4833 H   0  0  0  0  0  0  0  0  0  0  0  0
   -2.8612   12.1924   -7.9527 H   0  0  0  0  0  0  0  0  0  0  0  0
   -2.8628   11.4670   -6.3094 H   0  0  0  0  0  0  0  0  0  0  0  0
   -2.6581    9.7501   -8.0474 H   0  0  0  0  0  0  0  0  0  0  0  0
   -6.7366   12.3128   -6.9153 H   0  0  0  0  0  0  0  0  0  0  0  0
   -5.4700   14.1039   -6.1424 H   0  0  0  0  0  0  0  0  0  0  0  0
   -3.9148   13.6392   -5.3732 H   0  0  0  0  0  0  0  0  0  0  0  0
   -3.9239   14.3505   -7.0227 H   0  0  0  0  0  0  0  0  0  0  0  0
  1  2  1  0  0  0  0
  1  3  1  0  0  0  0
  1  4  1  0  0  0  0
  2  5  1  0  0  0  0
  3  6  1  0  0  0  0
  5  6  1  0  0  0  0
  6 12  1  0  0  0  0
  7  8  2  0  0  0  0
  7 10  1  0  0  0  0
  7 12  1  0  0  0  0
  8  9  1  0  0  0  0
  8 11  1  0  0  0  0
  9 15  2  0  0  0  0
 10 14  2  0  0  0  0
 12 13  2  0  0  0  0
 14 15  1  0  0  0  0
 14 18  1  0  0  0  0
 15 16  1  0  0  0  0
 16 17  2  0  0  0  0
 17 18  1  0  0  0  0
 18 19  1  0  0  0  0
 19 20  2  0  0  0  0
 20 21  1  0  0  0  0
 20 25  1  0  0  0  0
 21 24  2  0  0  0  0
 22 23  1  0  0  0  0
 22 24  1  0  0  0  0
 23 25  2  0  0  0  0
 23 26  1  0  0  0  0
  1 27  1  0  0  0  0
  2 28  1  0  0  0  0
  2 29  1  0  0  0  0
  3 30  1  0  0  0  0
  3 31  1  0  0  0  0
  4 32  1  0  0  0  0
  5 33  1  0  0  0  0
  5 34  1  0  0  0  0
  9 35  1  0  0  0  0
 10 36  1  0  0  0  0
 11 37  1  0  0  0  0
 18 38  1  0  0  0  0
 19 39  1  0  0  0  0
 21 40  1  0  0  0  0
 22 41  1  0  0  0  0
 22 42  1  0  0  0  0
 24 43  1  0  0  0  0
 25 44  1  0  0  0  0
 26 45  1  0  0  0  0
 26 46  1  0  0  0  0
 26 47  1  0  0  0  0
M  END
> <Name>
13

> <IC50[uM]>
0.006

$$$$
13
  -OEChem-05192314333D
 Structure written by MMmdl.
 47 50  0     1  0  0  0  0  0999 V2000
   -2.2088   12.9419  -10.9697 C   0  0  1  0  0  0  0  0  0  0  0  0
   -2.1904   14.4671  -10.9424 C   0  0  0  0  0  0  0  0  0  0  0  0
   -3.6992   12.5876  -10.8377 C   0  0  0  0  0  0  0  0  0  0  0  0
   -1.6826   12.4744  -12.1795 O   0  0  0  0  0  0  0  0  0  0  0  0
   -3.5107   14.9139  -11.6089 C   0  0  0  0  0  0  0  0  0  0  0  0
   -4.3443   13.7200  -11.5243 N   0  0  0  0  0  0  0  0  0  0  0  0
   -6.3525   12.3601  -12.0338 C   0  0  0  0  0  0  0  0  0  0  0  0
   -6.9727   11.7556  -13.1375 C   0  0  0  0  0  0  0  0  0  0  0  0
   -7.7097   10.5633  -13.0339 C   0  0  0  0  0  0  0  0  0  0  0  0
   -6.5001   11.8056  -10.7491 C   0  0  0  0  0  0  0  0  0  0  0  0
   -6.8506   12.3073  -14.3824 O   0  0  0  0  0  0  0  0  0  0  0  0
   -5.5377   13.6382  -12.2001 C   0  0  0  0  0  0  0  0  0  0  0  0
   -5.9500   14.5444  -12.9177 O   0  0  0  0  0  0  0  0  0  0  0  0
   -7.2308   10.6159  -10.6131 C   0  0  0  0  0  0  0  0  0  0  0  0
   -7.8083   10.0113  -11.7524 C   0  0  0  0  0  0  0  0  0  0  0  0
   -8.4200    8.8675  -11.2880 N   0  0  0  0  0  0  0  0  0  0  0  0
   -8.2847    8.7400   -9.9757 N   0  0  0  0  0  0  0  0  0  0  0  0
   -7.6047    9.7473   -9.5145 C   0  0  0  0  0  0  0  0  0  0  0  0
   -7.3264    9.8951   -8.0245 C   0  0  0  0  0  0  0  0  0  0  0  0
   -5.9604   10.4805   -7.7353 C   0  0  0  0  0  0  0  0  0  0  0  0
   -4.8075    9.7596   -8.0491 C   0  0  0  0  0  0  0  0  0  0  0  0
   -3.4358   11.5809   -7.2415 C   0  0  0  0  0  0  0  0  0  0  0  0
   -4.5835   12.3061   -6.9225 C   0  0  0  0  0  0  0  0  0  0  0  0
   -3.5481   10.3107   -7.8024 C   0  0  0  0  0  0  0  0  0  0  0  0
   -5.8471   11.7541   -7.1666 C   0  0  0  0  0  0  0  0  0  0  0  0
   -4.4650   13.6954   -6.3241 C   0  0  0  0  0  0  0  0  0  0  0  0
   -1.6558   12.5461  -10.1051 H   0  0  0  0  0  0  0  0  0  0  0  0
   -2.1418   14.8314   -9.9056 H   0  0  0  0  0  0  0  0  0  0  0  0
   -1.3273   14.8503  -11.5065 H   0  0  0  0  0  0  0  0  0  0  0  0
   -3.9292   11.6343  -11.3361 H   0  0  0  0  0  0  0  0  0  0  0  0
   -4.0052   12.5329   -9.7825 H   0  0  0  0  0  0  0  0  0  0  0  0
   -1.6986   11.5246  -12.1863 H   0  0  0  0  0  0  0  0  0  0  0  0
   -3.9654   15.7526  -11.0614 H   0  0  0  0  0  0  0  0  0  0  0  0
   -3.3451   15.2065  -12.6563 H   0  0  0  0  0  0  0  0  0  0  0  0
   -8.1726   10.1006  -13.8930 H   0  0  0  0  0  0  0  0  0  0  0  0
   -6.0607   12.2852   -9.8870 H   0  0  0  0  0  0  0  0  0  0  0  0
   -6.5242   13.1961  -14.3048 H   0  0  0  0  0  0  0  0  0  0  0  0
   -8.0295    9.6121   -7.2551 H   0  0  0  0  0  0  0  0  0  0  0  0
   -4.8892    8.7741   -8.4833 H   0  0  0  0  0  0  0  0  0  0  0  0
   -2.8612   12.1924   -7.9527 H   0  0  0  0  0  0  0  0  0  0  0  0
   -2.8628   11.4670   -6.3094 H   0  0  0  0  0  0  0  0  0  0  0  0
   -3.0270    9.6184   -7.1248 H   0  0  0  0  0  0  0  0  0  0  0  0
   -3.0225   10.3437   -8.7681 H   0  0  0  0  0  0  0  0  0  0  0  0
   -6.7366   12.3128   -6.9153 H   0  0  0  0  0  0  0  0  0  0  0  0
   -5.4700   14.1039   -6.1424 H   0  0  0  0  0  0  0  0  0  0  0  0
   -3.9148   13.6392   -5.3732 H   0  0  0  0  0  0  0  0  0  0  0  0
   -3.9239   14.3505   -7.0227 H   0  0  0  0  0  0  0  0  0  0  0  0
  1  2  1  0  0  0  0
  1  3  1  0  0  0  0
  1  4  1  0  0  0  0
  2  5  1  0  0  0  0
  3  6  1  0  0  0  0
  5  6  1  0  0  0  0
  6 12  1  0  0  0  0
  7  8  2  0  0  0  0
  7 10  1  0  0  0  0
  7 12  1  0  0  0  0
  8  9  1  0  0  0  0
  8 11  1  0  0  0  0
  9 15  2  0  0  0  0
 10 14  2  0  0  0  0
 12 13  2  0  0  0  0
 14 15  1  0  0  0  0
 14 18  1  0  0  0  0
 15 16  1  0  0  0  0
 16 17  2  0  0  0  0
 17 18  1  0  0  0  0
 18 19  2  0  0  0  0
 19 20  1  0  0  0  0
 20 21  2  0  0  0  0
 20 25  1  0  0  0  0
 21 24  1  0  0  0  0
 22 23  1  0  0  0  0
 22 24  1  0  0  0  0
 23 25  2  0  0  0  0
 23 26  1  0  0  0  0
  1 27  1  0  0  0  0
  2 28  1  0  0  0  0
  2 29  1  0  0  0  0
  3 30  1  0  0  0  0
  3 31  1  0  0  0  0
  4 32  1  0  0  0  0
  5 33  1  0  0  0  0
  5 34  1  0  0  0  0
  9 35  1  0  0  0  0
 10 36  1  0  0  0  0
 11 37  1  0  0  0  0
 19 38  1  0  0  0  0
 21 39  1  0  0  0  0
 22 40  1  0  0  0  0
 22 41  1  0  0  0  0
 24 42  1  0  0  0  0
 24 43  1  0  0  0  0
 25 44  1  0  0  0  0
 26 45  1  0  0  0  0
 26 46  1  0  0  0  0
 26 47  1  0  0  0  0
M  END
> <Name>
13

> <IC50[uM]>
0.006

$$$$
13
  -OEChem-05192314333D
 Structure written by MMmdl.
 47 50  0     1  0  0  0  0  0999 V2000
   -2.2088   12.9419  -10.9697 C   0  0  1  0  0  0  0  0  0  0  0  0
   -2.1904   14.4671  -10.9424 C   0  0  0  0  0  0  0  0  0  0  0  0
   -3.6992   12.5876  -10.8377 C   0  0  0  0  0  0  0  0  0  0  0  0
   -1.6826   12.4744  -12.1795 O   0  0  0  0  0  0  0  0  0  0  0  0
   -3.5107   14.9139  -11.6089 C   0  0  0  0  0  0  0  0  0  0  0  0
   -4.3443   13.7200  -11.5243 N   0  0  0  0  0  0  0  0  0  0  0  0
   -6.3525   12.3601  -12.0338 C   0  0  0  0  0  0  0  0  0  0  0  0
   -6.9727   11.7556  -13.1375 C   0  0  0  0  0  0  0  0  0  0  0  0
   -7.7097   10.5633  -13.0339 C   0  0  0  0  0  0  0  0  0  0  0  0
   -6.5001   11.8056  -10.7491 C   0  0  0  0  0  0  0  0  0  0  0  0
   -6.8506   12.3073  -14.3824 O   0  0  0  0  0  0  0  0  0  0  0  0
   -5.5377   13.6382  -12.2001 C   0  0  0  0  0  0  0  0  0  0  0  0
   -5.9500   14.5444  -12.9177 O   0  0  0  0  0  0  0  0  0  0  0  0
   -7.2308   10.6159  -10.6131 C   0  0  0  0  0  0  0  0  0  0  0  0
   -7.8083   10.0113  -11.7524 C   0  0  0  0  0  0  0  0  0  0  0  0
   -8.4200    8.8675  -11.2880 N   0  0  0  0  0  0  0  0  0  0  0  0
   -8.2847    8.7400   -9.9757 N   0  0  0  0  0  0  0  0  0  0  0  0
   -7.6047    9.7473   -9.5145 C   0  0  0  0  0  0  0  0  0  0  0  0
   -7.3264    9.8951   -8.0245 C   0  0  0  0  0  0  0  0  0  0  0  0
   -5.9604   10.4805   -7.7353 C   0  0  0  0  0  0  0  0  0  0  0  0
   -4.8075    9.7596   -8.0491 C   0  0  0  0  0  0  0  0  0  0  0  0
   -3.4358   11.5809   -7.2415 C   0  0  0  0  0  0  0  0  0  0  0  0
   -4.5835   12.3061   -6.9225 C   0  0  0  0  0  0  0  0  0  0  0  0
   -3.5481   10.3107   -7.8024 C   0  0  0  0  0  0  0  0  0  0  0  0
   -5.8471   11.7541   -7.1666 C   0  0  0  0  0  0  0  0  0  0  0  0
   -4.4650   13.6954   -6.3241 C   0  0  0  0  0  0  0  0  0  0  0  0
   -1.6558   12.5461  -10.1051 H   0  0  0  0  0  0  0  0  0  0  0  0
   -2.1418   14.8314   -9.9056 H   0  0  0  0  0  0  0  0  0  0  0  0
   -1.3273   14.8503  -11.5065 H   0  0  0  0  0  0  0  0  0  0  0  0
   -3.9292   11.6343  -11.3361 H   0  0  0  0  0  0  0  0  0  0  0  0
   -4.0052   12.5329   -9.7825 H   0  0  0  0  0  0  0  0  0  0  0  0
   -1.6986   11.5246  -12.1863 H   0  0  0  0  0  0  0  0  0  0  0  0
   -3.9654   15.7526  -11.0614 H   0  0  0  0  0  0  0  0  0  0  0  0
   -3.3451   15.2065  -12.6563 H   0  0  0  0  0  0  0  0  0  0  0  0
   -8.7298   10.7663  -13.3920 H   0  0  0  0  0  0  0  0  0  0  0  0
   -7.2340    9.8162  -13.6862 H   0  0  0  0  0  0  0  0  0  0  0  0
   -6.0607   12.2852   -9.8870 H   0  0  0  0  0  0  0  0  0  0  0  0
   -6.5242   13.1961  -14.3048 H   0  0  0  0  0  0  0  0  0  0  0  0
   -6.8802    9.4462  -11.9237 H   0  0  0  0  0  0  0  0  0  0  0  0
   -8.0295    9.6121   -7.2551 H   0  0  0  0  0  0  0  0  0  0  0  0
   -4.8892    8.7741   -8.4833 H   0  0  0  0  0  0  0  0  0  0  0  0
   -2.4600   12.0040   -7.0537 H   0  0  0  0  0  0  0  0  0  0  0  0
   -2.6581    9.7501   -8.0474 H   0  0  0  0  0  0  0  0  0  0  0  0
   -6.7366   12.3128   -6.9153 H   0  0  0  0  0  0  0  0  0  0  0  0
   -4.4364   14.4418   -7.1316 H   0  0  0  0  0  0  0  0  0  0  0  0
   -5.3317   13.8902   -5.6754 H   0  0  0  0  0  0  0  0  0  0  0  0
   -3.5409   13.7615   -5.7311 H   0  0  0  0  0  0  0  0  0  0  0  0
  1  2  1  0  0  0  0
  1  3  1  0  0  0  0
  1  4  1  0  0  0  0
  2  5  1  0  0  0  0
  3  6  1  0  0  0  0
  5  6  1  0  0  0  0
  6 12  1  0  0  0  0
  7  8  2  0  0  0  0
  7 10  1  0  0  0  0
  7 12  1  0  0  0  0
  8  9  1  0  0  0  0
  8 11  1  0  0  0  0
  9 15  1  0  0  0  0
 10 14  2  0  0  0  0
 12 13  2  0  0  0  0
 14 15  1  0  0  0  0
 14 18  1  0  0  0  0
 15 16  1  0  0  0  0
 16 17  2  0  0  0  0
 17 18  1  0  0  0  0
 18 19  2  0  0  0  0
 19 20  1  0  0  0  0
 20 21  2  0  0  0  0
 20 25  1  0  0  0  0
 21 24  1  0  0  0  0
 22 23  1  0  0  0  0
 22 24  2  0  0  0  0
 23 25  2  0  0  0  0
 23 26  1  0  0  0  0
  1 27  1  0  0  0  0
  2 28  1  0  0  0  0
  2 29  1  0  0  0  0
  3 30  1  0  0  0  0
  3 31  1  0  0  0  0
  4 32  1  0  0  0  0
  5 33  1  0  0  0  0
  5 34  1  0  0  0  0
  9 35  1  0  0  0  0
  9 36  1  0  0  0  0
 10 37  1  0  0  0  0
 11 38  1  0  0  0  0
 15 39  1  0  0  0  0
 19 40  1  0  0  0  0
 21 41  1  0  0  0  0
 22 42  1  0  0  0  0
 24 43  1  0  0  0  0
 25 44  1  0  0  0  0
 26 45  1  0  0  0  0
 26 46  1  0  0  0  0
 26 47  1  0  0  0  0
M  END
> <Name>
13

> <IC50[uM]>
0.006

$$$$
13
  -OEChem-05192314333D
 Structure written by MMmdl.
 47 50  0     1  0  0  0  0  0999 V2000
   -2.2088   12.9419  -10.9697 C   0  0  1  0  0  0  0  0  0  0  0  0
   -2.1904   14.4671  -10.9424 C   0  0  0  0  0  0  0  0  0  0  0  0
   -3.6992   12.5876  -10.8377 C   0  0  0  0  0  0  0  0  0  0  0  0
   -1.6826   12.4744  -12.1795 O   0  0  0  0  0  0  0  0  0  0  0  0
   -3.5107   14.9139  -11.6089 C   0  0  0  0  0  0  0  0  0  0  0  0
   -4.3443   13.7200  -11.5243 N   0  0  0  0  0  0  0  0  0  0  0  0
   -6.3525   12.3601  -12.0338 C   0  0  0  0  0  0  0  0  0  0  0  0
   -6.9727   11.7556  -13.1375 C   0  0  0  0  0  0  0  0  0  0  0  0
   -7.7097   10.5633  -13.0339 C   0  0  0  0  0  0  0  0  0  0  0  0
   -6.5001   11.8056  -10.7491 C   0  0  0  0  0  0  0  0  0  0  0  0
   -6.8506   12.3073  -14.3824 O   0  0  0  0  0  0  0  0  0  0  0  0
   -5.5377   13.6382  -12.2001 C   0  0  0  0  0  0  0  0  0  0  0  0
   -5.9500   14.5444  -12.9177 O   0  0  0  0  0  0  0  0  0  0  0  0
   -7.2308   10.6159  -10.6131 C   0  0  0  0  0  0  0  0  0  0  0  0
   -7.8083   10.0113  -11.7524 C   0  0  0  0  0  0  0  0  0  0  0  0
   -8.4200    8.8675  -11.2880 N   0  0  0  0  0  0  0  0  0  0  0  0
   -8.2847    8.7400   -9.9757 N   0  0  0  0  0  0  0  0  0  0  0  0
   -7.6047    9.7473   -9.5145 C   0  0  0  0  0  0  0  0  0  0  0  0
   -7.3264    9.8951   -8.0245 C   0  0  0  0  0  0  0  0  0  0  0  0
   -5.9604   10.4805   -7.7353 C   0  0  0  0  0  0  0  0  0  0  0  0
   -4.8075    9.7596   -8.0491 C   0  0  0  0  0  0  0  0  0  0  0  0
   -3.4358   11.5809   -7.2415 C   0  0  0  0  0  0  0  0  0  0  0  0
   -4.5835   12.3061   -6.9225 C   0  0  0  0  0  0  0  0  0  0  0  0
   -3.5481   10.3107   -7.8024 C   0  0  0  0  0  0  0  0  0  0  0  0
   -5.8471   11.7541   -7.1666 C   0  0  0  0  0  0  0  0  0  0  0  0
   -4.4650   13.6954   -6.3241 C   0  0  0  0  0  0  0  0  0  0  0  0
   -1.6558   12.5461  -10.1051 H   0  0  0  0  0  0  0  0  0  0  0  0
   -2.1418   14.8314   -9.9056 H   0  0  0  0  0  0  0  0  0  0  0  0
   -1.3273   14.8503  -11.5065 H   0  0  0  0  0  0  0  0  0  0  0  0
   -3.9292   11.6343  -11.3361 H   0  0  0  0  0  0  0  0  0  0  0  0
   -4.0052   12.5329   -9.7825 H   0  0  0  0  0  0  0  0  0  0  0  0
   -1.6986   11.5246  -12.1863 H   0  0  0  0  0  0  0  0  0  0  0  0
   -3.9654   15.7526  -11.0614 H   0  0  0  0  0  0  0  0  0  0  0  0
   -3.3451   15.2065  -12.6563 H   0  0  0  0  0  0  0  0  0  0  0  0
   -8.1726   10.1006  -13.8930 H   0  0  0  0  0  0  0  0  0  0  0  0
   -5.4892   11.6119  -10.3610 H   0  0  0  0  0  0  0  0  0  0  0  0
   -6.9942   12.5634  -10.1232 H   0  0  0  0  0  0  0  0  0  0  0  0
   -6.5242   13.1961  -14.3048 H   0  0  0  0  0  0  0  0  0  0  0  0
   -6.3117   10.0311  -10.7657 H   0  0  0  0  0  0  0  0  0  0  0  0
   -8.0295    9.6121   -7.2551 H   0  0  0  0  0  0  0  0  0  0  0  0
   -4.8892    8.7741   -8.4833 H   0  0  0  0  0  0  0  0  0  0  0  0
   -2.4600   12.0040   -7.0537 H   0  0  0  0  0  0  0  0  0  0  0  0
   -2.6581    9.7501   -8.0474 H   0  0  0  0  0  0  0  0  0  0  0  0
   -6.7366   12.3128   -6.9153 H   0  0  0  0  0  0  0  0  0  0  0  0
   -4.4364   14.4418   -7.1316 H   0  0  0  0  0  0  0  0  0  0  0  0
   -5.3317   13.8902   -5.6754 H   0  0  0  0  0  0  0  0  0  0  0  0
   -3.5409   13.7615   -5.7311 H   0  0  0  0  0  0  0  0  0  0  0  0
  1  2  1  0  0  0  0
  1  3  1  0  0  0  0
  1  4  1  0  0  0  0
  2  5  1  0  0  0  0
  3  6  1  0  0  0  0
  5  6  1  0  0  0  0
  6 12  1  0  0  0  0
  7  8  2  0  0  0  0
  7 10  1  0  0  0  0
  7 12  1  0  0  0  0
  8  9  1  0  0  0  0
  8 11  1  0  0  0  0
  9 15  2  0  0  0  0
 10 14  1  0  0  0  0
 12 13  2  0  0  0  0
 14 15  1  0  0  0  0
 14 18  1  0  0  0  0
 15 16  1  0  0  0  0
 16 17  2  0  0  0  0
 17 18  1  0  0  0  0
 18 19  2  0  0  0  0
 19 20  1  0  0  0  0
 20 21  2  0  0  0  0
 20 25  1  0  0  0  0
 21 24  1  0  0  0  0
 22 23  1  0  0  0  0
 22 24  2  0  0  0  0
 23 25  2  0  0  0  0
 23 26  1  0  0  0  0
  1 27  1  0  0  0  0
  2 28  1  0  0  0  0
  2 29  1  0  0  0  0
  3 30  1  0  0  0  0
  3 31  1  0  0  0  0
  4 32  1  0  0  0  0
  5 33  1  0  0  0  0
  5 34  1  0  0  0  0
  9 35  1  0  0  0  0
 10 36  1  0  0  0  0
 10 37  1  0  0  0  0
 11 38  1  0  0  0  0
 14 39  1  0  0  0  0
 19 40  1  0  0  0  0
 21 41  1  0  0  0  0
 22 42  1  0  0  0  0
 24 43  1  0  0  0  0
 25 44  1  0  0  0  0
 26 45  1  0  0  0  0
 26 46  1  0  0  0  0
 26 47  1  0  0  0  0
M  END
> <Name>
13

> <IC50[uM]>
0.006

$$$$
13
  -OEChem-05192314333D
 Structure written by MMmdl.
 47 50  0     1  0  0  0  0  0999 V2000
   -2.2088   12.9419  -10.9697 C   0  0  1  0  0  0  0  0  0  0  0  0
   -2.1904   14.4671  -10.9424 C   0  0  0  0  0  0  0  0  0  0  0  0
   -3.6992   12.5876  -10.8377 C   0  0  0  0  0  0  0  0  0  0  0  0
   -1.6826   12.4744  -12.1795 O   0  0  0  0  0  0  0  0  0  0  0  0
   -3.5107   14.9139  -11.6089 C   0  0  0  0  0  0  0  0  0  0  0  0
   -4.3443   13.7200  -11.5243 N   0  0  0  0  0  0  0  0  0  0  0  0
   -6.3525   12.3601  -12.0338 C   0  0  0  0  0  0  0  0  0  0  0  0
   -6.9727   11.7556  -13.1375 C   0  0  0  0  0  0  0  0  0  0  0  0
   -7.7097   10.5633  -13.0339 C   0  0  0  0  0  0  0  0  0  0  0  0
   -6.5001   11.8056  -10.7491 C   0  0  0  0  0  0  0  0  0  0  0  0
   -6.8506   12.3073  -14.3824 O   0  0  0  0  0  0  0  0  0  0  0  0
   -5.5377   13.6382  -12.2001 C   0  0  0  0  0  0  0  0  0  0  0  0
   -5.9500   14.5444  -12.9177 O   0  0  0  0  0  0  0  0  0  0  0  0
   -7.2308   10.6159  -10.6131 C   0  0  0  0  0  0  0  0  0  0  0  0
   -7.8083   10.0113  -11.7524 C   0  0  0  0  0  0  0  0  0  0  0  0
   -8.4200    8.8675  -11.2880 N   0  0  0  0  0  0  0  0  0  0  0  0
   -8.2847    8.7400   -9.9757 N   0  0  0  0  0  0  0  0  0  0  0  0
   -7.6047    9.7473   -9.5145 C   0  0  0  0  0  0  0  0  0  0  0  0
   -7.3264    9.8951   -8.0245 C   0  0  0  0  0  0  0  0  0  0  0  0
   -5.9604   10.4805   -7.7353 C   0  0  0  0  0  0  0  0  0  0  0  0
   -4.8075    9.7596   -8.0491 C   0  0  0  0  0  0  0  0  0  0  0  0
   -3.4358   11.5809   -7.2415 C   0  0  0  0  0  0  0  0  0  0  0  0
   -4.5835   12.3061   -6.9225 C   0  0  0  0  0  0  0  0  0  0  0  0
   -3.5481   10.3107   -7.8024 C   0  0  0  0  0  0  0  0  0  0  0  0
   -5.8471   11.7541   -7.1666 C   0  0  0  0  0  0  0  0  0  0  0  0
   -4.4650   13.6954   -6.3241 C   0  0  0  0  0  0  0  0  0  0  0  0
   -1.6558   12.5461  -10.1051 H   0  0  0  0  0  0  0  0  0  0  0  0
   -2.1418   14.8314   -9.9056 H   0  0  0  0  0  0  0  0  0  0  0  0
   -1.3273   14.8503  -11.5065 H   0  0  0  0  0  0  0  0  0  0  0  0
   -3.9292   11.6343  -11.3361 H   0  0  0  0  0  0  0  0  0  0  0  0
   -4.0052   12.5329   -9.7825 H   0  0  0  0  0  0  0  0  0  0  0  0
   -1.6986   11.5246  -12.1863 H   0  0  0  0  0  0  0  0  0  0  0  0
   -3.9654   15.7526  -11.0614 H   0  0  0  0  0  0  0  0  0  0  0  0
   -3.3451   15.2065  -12.6563 H   0  0  0  0  0  0  0  0  0  0  0  0
   -8.7298   10.7663  -13.3920 H   0  0  0  0  0  0  0  0  0  0  0  0
   -7.2340    9.8162  -13.6862 H   0  0  0  0  0  0  0  0  0  0  0  0
   -5.4892   11.6119  -10.3610 H   0  0  0  0  0  0  0  0  0  0  0  0
   -6.9942   12.5634  -10.1232 H   0  0  0  0  0  0  0  0  0  0  0  0
   -6.5242   13.1961  -14.3048 H   0  0  0  0  0  0  0  0  0  0  0  0
   -8.0295    9.6121   -7.2551 H   0  0  0  0  0  0  0  0  0  0  0  0
   -4.8892    8.7741   -8.4833 H   0  0  0  0  0  0  0  0  0  0  0  0
   -2.4600   12.0040   -7.0537 H   0  0  0  0  0  0  0  0  0  0  0  0
   -2.6581    9.7501   -8.0474 H   0  0  0  0  0  0  0  0  0  0  0  0
   -6.7366   12.3128   -6.9153 H   0  0  0  0  0  0  0  0  0  0  0  0
   -4.4364   14.4418   -7.1316 H   0  0  0  0  0  0  0  0  0  0  0  0
   -5.3317   13.8902   -5.6754 H   0  0  0  0  0  0  0  0  0  0  0  0
   -3.5409   13.7615   -5.7311 H   0  0  0  0  0  0  0  0  0  0  0  0
  1  2  1  0  0  0  0
  1  3  1  0  0  0  0
  1  4  1  0  0  0  0
  2  5  1  0  0  0  0
  3  6  1  0  0  0  0
  5  6  1  0  0  0  0
  6 12  1  0  0  0  0
  7  8  2  0  0  0  0
  7 10  1  0  0  0  0
  7 12  1  0  0  0  0
  8  9  1  0  0  0  0
  8 11  1  0  0  0  0
  9 15  1  0  0  0  0
 10 14  1  0  0  0  0
 12 13  2  0  0  0  0
 14 15  2  0  0  0  0
 14 18  1  0  0  0  0
 15 16  1  0  0  0  0
 16 17  2  0  0  0  0
 17 18  1  0  0  0  0
 18 19  2  0  0  0  0
 19 20  1  0  0  0  0
 20 21  2  0  0  0  0
 20 25  1  0  0  0  0
 21 24  1  0  0  0  0
 22 23  1  0  0  0  0
 22 24  2  0  0  0  0
 23 25  2  0  0  0  0
 23 26  1  0  0  0  0
  1 27  1  0  0  0  0
  2 28  1  0  0  0  0
  2 29  1  0  0  0  0
  3 30  1  0  0  0  0
  3 31  1  0  0  0  0
  4 32  1  0  0  0  0
  5 33  1  0  0  0  0
  5 34  1  0  0  0  0
  9 35  1  0  0  0  0
  9 36  1  0  0  0  0
 10 37  1  0  0  0  0
 10 38  1  0  0  0  0
 11 39  1  0  0  0  0
 19 40  1  0  0  0  0
 21 41  1  0  0  0  0
 22 42  1  0  0  0  0
 24 43  1  0  0  0  0
 25 44  1  0  0  0  0
 26 45  1  0  0  0  0
 26 46  1  0  0  0  0
 26 47  1  0  0  0  0
M  END
> <Name>
13

> <IC50[uM]>
0.006

$$$$
13
  -OEChem-05192314333D
 Structure written by MMmdl.
 47 50  0     1  0  0  0  0  0999 V2000
   -2.2088   12.9419  -10.9697 C   0  0  1  0  0  0  0  0  0  0  0  0
   -2.1904   14.4671  -10.9424 C   0  0  0  0  0  0  0  0  0  0  0  0
   -3.6992   12.5876  -10.8377 C   0  0  0  0  0  0  0  0  0  0  0  0
   -1.6826   12.4744  -12.1795 O   0  0  0  0  0  0  0  0  0  0  0  0
   -3.5107   14.9139  -11.6089 C   0  0  0  0  0  0  0  0  0  0  0  0
   -4.3443   13.7200  -11.5243 N   0  0  0  0  0  0  0  0  0  0  0  0
   -6.3525   12.3601  -12.0338 C   0  0  0  0  0  0  0  0  0  0  0  0
   -6.9727   11.7556  -13.1375 C   0  0  0  0  0  0  0  0  0  0  0  0
   -7.7097   10.5633  -13.0339 C   0  0  0  0  0  0  0  0  0  0  0  0
   -6.5001   11.8056  -10.7491 C   0  0  0  0  0  0  0  0  0  0  0  0
   -6.8506   12.3073  -14.3824 O   0  0  0  0  0  0  0  0  0  0  0  0
   -5.5377   13.6382  -12.2001 C   0  0  0  0  0  0  0  0  0  0  0  0
   -5.9500   14.5444  -12.9177 O   0  0  0  0  0  0  0  0  0  0  0  0
   -7.2308   10.6159  -10.6131 C   0  0  0  0  0  0  0  0  0  0  0  0
   -7.8083   10.0113  -11.7524 C   0  0  0  0  0  0  0  0  0  0  0  0
   -8.4200    8.8675  -11.2880 N   0  0  0  0  0  0  0  0  0  0  0  0
   -8.2847    8.7400   -9.9757 N   0  0  0  0  0  0  0  0  0  0  0  0
   -7.6047    9.7473   -9.5145 C   0  0  0  0  0  0  0  0  0  0  0  0
   -7.3264    9.8951   -8.0245 C   0  0  0  0  0  0  0  0  0  0  0  0
   -5.9604   10.4805   -7.7353 C   0  0  0  0  0  0  0  0  0  0  0  0
   -4.8075    9.7596   -8.0491 C   0  0  0  0  0  0  0  0  0  0  0  0
   -3.4358   11.5809   -7.2415 C   0  0  0  0  0  0  0  0  0  0  0  0
   -4.5835   12.3061   -6.9225 C   0  0  0  0  0  0  0  0  0  0  0  0
   -3.5481   10.3107   -7.8024 C   0  0  0  0  0  0  0  0  0  0  0  0
   -5.8471   11.7541   -7.1666 C   0  0  0  0  0  0  0  0  0  0  0  0
   -4.4650   13.6954   -6.3241 C   0  0  0  0  0  0  0  0  0  0  0  0
   -1.6558   12.5461  -10.1051 H   0  0  0  0  0  0  0  0  0  0  0  0
   -2.1418   14.8314   -9.9056 H   0  0  0  0  0  0  0  0  0  0  0  0
   -1.3273   14.8503  -11.5065 H   0  0  0  0  0  0  0  0  0  0  0  0
   -3.9292   11.6343  -11.3361 H   0  0  0  0  0  0  0  0  0  0  0  0
   -4.0052   12.5329   -9.7825 H   0  0  0  0  0  0  0  0  0  0  0  0
   -1.6986   11.5246  -12.1863 H   0  0  0  0  0  0  0  0  0  0  0  0
   -3.9654   15.7526  -11.0614 H   0  0  0  0  0  0  0  0  0  0  0  0
   -3.3451   15.2065  -12.6563 H   0  0  0  0  0  0  0  0  0  0  0  0
   -8.1726   10.1006  -13.8930 H   0  0  0  0  0  0  0  0  0  0  0  0
   -5.4892   11.6119  -10.3610 H   0  0  0  0  0  0  0  0  0  0  0  0
   -6.9942   12.5634  -10.1232 H   0  0  0  0  0  0  0  0  0  0  0  0
   -6.5242   13.1961  -14.3048 H   0  0  0  0  0  0  0  0  0  0  0  0
   -8.0906   10.5553   -7.5885 H   0  0  0  0  0  0  0  0  0  0  0  0
   -7.3891    8.9020   -7.5556 H   0  0  0  0  0  0  0  0  0  0  0  0
   -4.8892    8.7741   -8.4833 H   0  0  0  0  0  0  0  0  0  0  0  0
   -2.4600   12.0040   -7.0537 H   0  0  0  0  0  0  0  0  0  0  0  0
   -2.6581    9.7501   -8.0474 H   0  0  0  0  0  0  0  0  0  0  0  0
   -6.7366   12.3128   -6.9153 H   0  0  0  0  0  0  0  0  0  0  0  0
   -4.4364   14.4418   -7.1316 H   0  0  0  0  0  0  0  0  0  0  0  0
   -5.3317   13.8902   -5.6754 H   0  0  0  0  0  0  0  0  0  0  0  0
   -3.5409   13.7615   -5.7311 H   0  0  0  0  0  0  0  0  0  0  0  0
  1  2  1  0  0  0  0
  1  3  1  0  0  0  0
  1  4  1  0  0  0  0
  2  5  1  0  0  0  0
  3  6  1  0  0  0  0
  5  6  1  0  0  0  0
  6 12  1  0  0  0  0
  7  8  2  0  0  0  0
  7 10  1  0  0  0  0
  7 12  1  0  0  0  0
  8  9  1  0  0  0  0
  8 11  1  0  0  0  0
  9 15  2  0  0  0  0
 10 14  1  0  0  0  0
 12 13  2  0  0  0  0
 14 15  1  0  0  0  0
 14 18  2  0  0  0  0
 15 16  1  0  0  0  0
 16 17  2  0  0  0  0
 17 18  1  0  0  0  0
 18 19  1  0  0  0  0
 19 20  1  0  0  0  0
 20 21  2  0  0  0  0
 20 25  1  0  0  0  0
 21 24  1  0  0  0  0
 22 23  1  0  0  0  0
 22 24  2  0  0  0  0
 23 25  2  0  0  0  0
 23 26  1  0  0  0  0
  1 27  1  0  0  0  0
  2 28  1  0  0  0  0
  2 29  1  0  0  0  0
  3 30  1  0  0  0  0
  3 31  1  0  0  0  0
  4 32  1  0  0  0  0
  5 33  1  0  0  0  0
  5 34  1  0  0  0  0
  9 35  1  0  0  0  0
 10 36  1  0  0  0  0
 10 37  1  0  0  0  0
 11 38  1  0  0  0  0
 19 39  1  0  0  0  0
 19 40  1  0  0  0  0
 21 41  1  0  0  0  0
 22 42  1  0  0  0  0
 24 43  1  0  0  0  0
 25 44  1  0  0  0  0
 26 45  1  0  0  0  0
 26 46  1  0  0  0  0
 26 47  1  0  0  0  0
M  END
> <Name>
13

> <IC50[uM]>
0.006

$$$$
13
  -OEChem-05192314333D
 Structure written by MMmdl.
 47 50  0     1  0  0  0  0  0999 V2000
   -2.2088   12.9419  -10.9697 C   0  0  1  0  0  0  0  0  0  0  0  0
   -2.1904   14.4671  -10.9424 C   0  0  0  0  0  0  0  0  0  0  0  0
   -3.6992   12.5876  -10.8377 C   0  0  0  0  0  0  0  0  0  0  0  0
   -1.6826   12.4744  -12.1795 O   0  0  0  0  0  0  0  0  0  0  0  0
   -3.5107   14.9139  -11.6089 C   0  0  0  0  0  0  0  0  0  0  0  0
   -4.3443   13.7200  -11.5243 N   0  0  0  0  0  0  0  0  0  0  0  0
   -6.3525   12.3601  -12.0338 C   0  0  0  0  0  0  0  0  0  0  0  0
   -6.9727   11.7556  -13.1375 C   0  0  0  0  0  0  0  0  0  0  0  0
   -7.7097   10.5633  -13.0339 C   0  0  0  0  0  0  0  0  0  0  0  0
   -6.5001   11.8056  -10.7491 C   0  0  0  0  0  0  0  0  0  0  0  0
   -6.8506   12.3073  -14.3824 O   0  0  0  0  0  0  0  0  0  0  0  0
   -5.5377   13.6382  -12.2001 C   0  0  0  0  0  0  0  0  0  0  0  0
   -5.9500   14.5444  -12.9177 O   0  0  0  0  0  0  0  0  0  0  0  0
   -7.2308   10.6159  -10.6131 C   0  0  0  0  0  0  0  0  0  0  0  0
   -7.8083   10.0113  -11.7524 C   0  0  0  0  0  0  0  0  0  0  0  0
   -8.4200    8.8675  -11.2880 N   0  0  0  0  0  0  0  0  0  0  0  0
   -8.2847    8.7400   -9.9757 N   0  0  0  0  0  0  0  0  0  0  0  0
   -7.6047    9.7473   -9.5145 C   0  0  0  0  0  0  0  0  0  0  0  0
   -7.3264    9.8951   -8.0245 C   0  0  0  0  0  0  0  0  0  0  0  0
   -5.9604   10.4805   -7.7353 C   0  0  0  0  0  0  0  0  0  0  0  0
   -4.8075    9.7596   -8.0491 C   0  0  0  0  0  0  0  0  0  0  0  0
   -3.4358   11.5809   -7.2415 C   0  0  0  0  0  0  0  0  0  0  0  0
   -4.5835   12.3061   -6.9225 C   0  0  0  0  0  0  0  0  0  0  0  0
   -3.5481   10.3107   -7.8024 C   0  0  0  0  0  0  0  0  0  0  0  0
   -5.8471   11.7541   -7.1666 C   0  0  0  0  0  0  0  0  0  0  0  0
   -4.4650   13.6954   -6.3241 C   0  0  0  0  0  0  0  0  0  0  0  0
   -1.6558   12.5461  -10.1051 H   0  0  0  0  0  0  0  0  0  0  0  0
   -2.1418   14.8314   -9.9056 H   0  0  0  0  0  0  0  0  0  0  0  0
   -1.3273   14.8503  -11.5065 H   0  0  0  0  0  0  0  0  0  0  0  0
   -3.9292   11.6343  -11.3361 H   0  0  0  0  0  0  0  0  0  0  0  0
   -4.0052   12.5329   -9.7825 H   0  0  0  0  0  0  0  0  0  0  0  0
   -1.6986   11.5246  -12.1863 H   0  0  0  0  0  0  0  0  0  0  0  0
   -3.9654   15.7526  -11.0614 H   0  0  0  0  0  0  0  0  0  0  0  0
   -3.3451   15.2065  -12.6563 H   0  0  0  0  0  0  0  0  0  0  0  0
   -8.1726   10.1006  -13.8930 H   0  0  0  0  0  0  0  0  0  0  0  0
   -6.0607   12.2852   -9.8870 H   0  0  0  0  0  0  0  0  0  0  0  0
   -6.5242   13.1961  -14.3048 H   0  0  0  0  0  0  0  0  0  0  0  0
   -8.0295    9.6121   -7.2551 H   0  0  0  0  0  0  0  0  0  0  0  0
   -4.8892    8.7741   -8.4833 H   0  0  0  0  0  0  0  0  0  0  0  0
   -2.4600   12.0040   -7.0537 H   0  0  0  0  0  0  0  0  0  0  0  0
   -4.5836   11.8682   -5.9134 H   0  0  0  0  0  0  0  0  0  0  0  0
   -2.6581    9.7501   -8.0474 H   0  0  0  0  0  0  0  0  0  0  0  0
   -6.3717   12.4489   -7.8389 H   0  0  0  0  0  0  0  0  0  0  0  0
   -6.3685   11.7163   -6.1988 H   0  0  0  0  0  0  0  0  0  0  0  0
   -5.4700   14.1039   -6.1424 H   0  0  0  0  0  0  0  0  0  0  0  0
   -3.9148   13.6392   -5.3732 H   0  0  0  0  0  0  0  0  0  0  0  0
   -3.9239   14.3505   -7.0227 H   0  0  0  0  0  0  0  0  0  0  0  0
  1  2  1  0  0  0  0
  1  3  1  0  0  0  0
  1  4  1  0  0  0  0
  2  5  1  0  0  0  0
  3  6  1  0  0  0  0
  5  6  1  0  0  0  0
  6 12  1  0  0  0  0
  7  8  2  0  0  0  0
  7 10  1  0  0  0  0
  7 12  1  0  0  0  0
  8  9  1  0  0  0  0
  8 11  1  0  0  0  0
  9 15  2  0  0  0  0
 10 14  2  0  0  0  0
 12 13  2  0  0  0  0
 14 15  1  0  0  0  0
 14 18  1  0  0  0  0
 15 16  1  0  0  0  0
 16 17  2  0  0  0  0
 17 18  1  0  0  0  0
 18 19  2  0  0  0  0
 19 20  1  0  0  0  0
 20 21  2  0  0  0  0
 20 25  1  0  0  0  0
 21 24  1  0  0  0  0
 22 23  1  0  0  0  0
 22 24  2  0  0  0  0
 23 25  1  0  0  0  0
 23 26  1  0  0  0  0
  1 27  1  0  0  0  0
  2 28  1  0  0  0  0
  2 29  1  0  0  0  0
  3 30  1  0  0  0  0
  3 31  1  0  0  0  0
  4 32  1  0  0  0  0
  5 33  1  0  0  0  0
  5 34  1  0  0  0  0
  9 35  1  0  0  0  0
 10 36  1  0  0  0  0
 11 37  1  0  0  0  0
 19 38  1  0  0  0  0
 21 39  1  0  0  0  0
 22 40  1  0  0  0  0
 23 41  1  0  0  0  0
 24 42  1  0  0  0  0
 25 43  1  0  0  0  0
 25 44  1  0  0  0  0
 26 45  1  0  0  0  0
 26 46  1  0  0  0  0
 26 47  1  0  0  0  0
M  END
> <Name>
13

> <IC50[uM]>
0.006

$$$$
13
  -OEChem-05192314333D
 Structure written by MMmdl.
 47 50  0     1  0  0  0  0  0999 V2000
   -2.2088   12.9419  -10.9697 C   0  0  1  0  0  0  0  0  0  0  0  0
   -2.1904   14.4671  -10.9424 C   0  0  0  0  0  0  0  0  0  0  0  0
   -3.6992   12.5876  -10.8377 C   0  0  0  0  0  0  0  0  0  0  0  0
   -1.6826   12.4744  -12.1795 O   0  0  0  0  0  0  0  0  0  0  0  0
   -3.5107   14.9139  -11.6089 C   0  0  0  0  0  0  0  0  0  0  0  0
   -4.3443   13.7200  -11.5243 N   0  0  0  0  0  0  0  0  0  0  0  0
   -6.3525   12.3601  -12.0338 C   0  0  0  0  0  0  0  0  0  0  0  0
   -6.9727   11.7556  -13.1375 C   0  0  0  0  0  0  0  0  0  0  0  0
   -7.7097   10.5633  -13.0339 C   0  0  0  0  0  0  0  0  0  0  0  0
   -6.5001   11.8056  -10.7491 C   0  0  0  0  0  0  0  0  0  0  0  0
   -6.8506   12.3073  -14.3824 O   0  0  0  0  0  0  0  0  0  0  0  0
   -5.5377   13.6382  -12.2001 C   0  0  0  0  0  0  0  0  0  0  0  0
   -5.9500   14.5444  -12.9177 O   0  0  0  0  0  0  0  0  0  0  0  0
   -7.2308   10.6159  -10.6131 C   0  0  0  0  0  0  0  0  0  0  0  0
   -7.8083   10.0113  -11.7524 C   0  0  0  0  0  0  0  0  0  0  0  0
   -8.4200    8.8675  -11.2880 N   0  0  0  0  0  0  0  0  0  0  0  0
   -8.2847    8.7400   -9.9757 N   0  0  0  0  0  0  0  0  0  0  0  0
   -7.6047    9.7473   -9.5145 C   0  0  0  0  0  0  0  0  0  0  0  0
   -7.3264    9.8951   -8.0245 C   0  0  0  0  0  0  0  0  0  0  0  0
   -5.9604   10.4805   -7.7353 C   0  0  0  0  0  0  0  0  0  0  0  0
   -4.8075    9.7596   -8.0491 C   0  0  0  0  0  0  0  0  0  0  0  0
   -3.4358   11.5809   -7.2415 C   0  0  0  0  0  0  0  0  0  0  0  0
   -4.5835   12.3061   -6.9225 C   0  0  0  0  0  0  0  0  0  0  0  0
   -3.5481   10.3107   -7.8024 C   0  0  0  0  0  0  0  0  0  0  0  0
   -5.8471   11.7541   -7.1666 C   0  0  0  0  0  0  0  0  0  0  0  0
   -4.4650   13.6954   -6.3241 C   0  0  0  0  0  0  0  0  0  0  0  0
   -1.6558   12.5461  -10.1051 H   0  0  0  0  0  0  0  0  0  0  0  0
   -2.1418   14.8314   -9.9056 H   0  0  0  0  0  0  0  0  0  0  0  0
   -1.3273   14.8503  -11.5065 H   0  0  0  0  0  0  0  0  0  0  0  0
   -3.9292   11.6343  -11.3361 H   0  0  0  0  0  0  0  0  0  0  0  0
   -4.0052   12.5329   -9.7825 H   0  0  0  0  0  0  0  0  0  0  0  0
   -1.6986   11.5246  -12.1863 H   0  0  0  0  0  0  0  0  0  0  0  0
   -3.9654   15.7526  -11.0614 H   0  0  0  0  0  0  0  0  0  0  0  0
   -3.3451   15.2065  -12.6563 H   0  0  0  0  0  0  0  0  0  0  0  0
   -8.1726   10.1006  -13.8930 H   0  0  0  0  0  0  0  0  0  0  0  0
   -6.0607   12.2852   -9.8870 H   0  0  0  0  0  0  0  0  0  0  0  0
   -6.5242   13.1961  -14.3048 H   0  0  0  0  0  0  0  0  0  0  0  0
   -8.0295    9.6121   -7.2551 H   0  0  0  0  0  0  0  0  0  0  0  0
   -5.9749   10.0291   -6.7323 H   0  0  0  0  0  0  0  0  0  0  0  0
   -4.8892    8.7741   -8.4833 H   0  0  0  0  0  0  0  0  0  0  0  0
   -2.4600   12.0040   -7.0537 H   0  0  0  0  0  0  0  0  0  0  0  0
   -2.6581    9.7501   -8.0474 H   0  0  0  0  0  0  0  0  0  0  0  0
   -6.3717   12.4489   -7.8389 H   0  0  0  0  0  0  0  0  0  0  0  0
   -6.3685   11.7163   -6.1988 H   0  0  0  0  0  0  0  0  0  0  0  0
   -5.4700   14.1039   -6.1424 H   0  0  0  0  0  0  0  0  0  0  0  0
   -3.9148   13.6392   -5.3732 H   0  0  0  0  0  0  0  0  0  0  0  0
   -3.9239   14.3505   -7.0227 H   0  0  0  0  0  0  0  0  0  0  0  0
  1  2  1  0  0  0  0
  1  3  1  0  0  0  0
  1  4  1  0  0  0  0
  2  5  1  0  0  0  0
  3  6  1  0  0  0  0
  5  6  1  0  0  0  0
  6 12  1  0  0  0  0
  7  8  2  0  0  0  0
  7 10  1  0  0  0  0
  7 12  1  0  0  0  0
  8  9  1  0  0  0  0
  8 11  1  0  0  0  0
  9 15  2  0  0  0  0
 10 14  2  0  0  0  0
 12 13  2  0  0  0  0
 14 15  1  0  0  0  0
 14 18  1  0  0  0  0
 15 16  1  0  0  0  0
 16 17  2  0  0  0  0
 17 18  1  0  0  0  0
 18 19  2  0  0  0  0
 19 20  1  0  0  0  0
 20 21  1  0  0  0  0
 20 25  1  0  0  0  0
 21 24  2  0  0  0  0
 22 23  2  0  0  0  0
 22 24  1  0  0  0  0
 23 25  1  0  0  0  0
 23 26  1  0  0  0  0
  1 27  1  0  0  0  0
  2 28  1  0  0  0  0
  2 29  1  0  0  0  0
  3 30  1  0  0  0  0
  3 31  1  0  0  0  0
  4 32  1  0  0  0  0
  5 33  1  0  0  0  0
  5 34  1  0  0  0  0
  9 35  1  0  0  0  0
 10 36  1  0  0  0  0
 11 37  1  0  0  0  0
 19 38  1  0  0  0  0
 20 39  1  0  0  0  0
 21 40  1  0  0  0  0
 22 41  1  0  0  0  0
 24 42  1  0  0  0  0
 25 43  1  0  0  0  0
 25 44  1  0  0  0  0
 26 45  1  0  0  0  0
 26 46  1  0  0  0  0
 26 47  1  0  0  0  0
M  END
> <Name>
13

> <IC50[uM]>
0.006

$$$$
13
  -OEChem-05192314333D
 Structure written by MMmdl.
 47 50  0     1  0  0  0  0  0999 V2000
   -2.2088   12.9419  -10.9697 C   0  0  1  0  0  0  0  0  0  0  0  0
   -2.1904   14.4671  -10.9424 C   0  0  0  0  0  0  0  0  0  0  0  0
   -3.6992   12.5876  -10.8377 C   0  0  0  0  0  0  0  0  0  0  0  0
   -1.6826   12.4744  -12.1795 O   0  0  0  0  0  0  0  0  0  0  0  0
   -3.5107   14.9139  -11.6089 C   0  0  0  0  0  0  0  0  0  0  0  0
   -4.3443   13.7200  -11.5243 N   0  0  0  0  0  0  0  0  0  0  0  0
   -6.3525   12.3601  -12.0338 C   0  0  0  0  0  0  0  0  0  0  0  0
   -6.9727   11.7556  -13.1375 C   0  0  0  0  0  0  0  0  0  0  0  0
   -7.7097   10.5633  -13.0339 C   0  0  0  0  0  0  0  0  0  0  0  0
   -6.5001   11.8056  -10.7491 C   0  0  0  0  0  0  0  0  0  0  0  0
   -6.8506   12.3073  -14.3824 O   0  0  0  0  0  0  0  0  0  0  0  0
   -5.5377   13.6382  -12.2001 C   0  0  0  0  0  0  0  0  0  0  0  0
   -5.9500   14.5444  -12.9177 O   0  0  0  0  0  0  0  0  0  0  0  0
   -7.2308   10.6159  -10.6131 C   0  0  0  0  0  0  0  0  0  0  0  0
   -7.8083   10.0113  -11.7524 C   0  0  0  0  0  0  0  0  0  0  0  0
   -8.4200    8.8675  -11.2880 N   0  0  0  0  0  0  0  0  0  0  0  0
   -8.2847    8.7400   -9.9757 N   0  0  0  0  0  0  0  0  0  0  0  0
   -7.6047    9.7473   -9.5145 C   0  0  0  0  0  0  0  0  0  0  0  0
   -7.3264    9.8951   -8.0245 C   0  0  0  0  0  0  0  0  0  0  0  0
   -5.9604   10.4805   -7.7353 C   0  0  0  0  0  0  0  0  0  0  0  0
   -4.8075    9.7596   -8.0491 C   0  0  0  0  0  0  0  0  0  0  0  0
   -3.4358   11.5809   -7.2415 C   0  0  0  0  0  0  0  0  0  0  0  0
   -4.5835   12.3061   -6.9225 C   0  0  0  0  0  0  0  0  0  0  0  0
   -3.5481   10.3107   -7.8024 C   0  0  0  0  0  0  0  0  0  0  0  0
   -5.8471   11.7541   -7.1666 C   0  0  0  0  0  0  0  0  0  0  0  0
   -4.4650   13.6954   -6.3241 C   0  0  0  0  0  0  0  0  0  0  0  0
   -1.6558   12.5461  -10.1051 H   0  0  0  0  0  0  0  0  0  0  0  0
   -2.1418   14.8314   -9.9056 H   0  0  0  0  0  0  0  0  0  0  0  0
   -1.3273   14.8503  -11.5065 H   0  0  0  0  0  0  0  0  0  0  0  0
   -3.9292   11.6343  -11.3361 H   0  0  0  0  0  0  0  0  0  0  0  0
   -4.0052   12.5329   -9.7825 H   0  0  0  0  0  0  0  0  0  0  0  0
   -1.6986   11.5246  -12.1863 H   0  0  0  0  0  0  0  0  0  0  0  0
   -3.9654   15.7526  -11.0614 H   0  0  0  0  0  0  0  0  0  0  0  0
   -3.3451   15.2065  -12.6563 H   0  0  0  0  0  0  0  0  0  0  0  0
   -8.1726   10.1006  -13.8930 H   0  0  0  0  0  0  0  0  0  0  0  0
   -6.0607   12.2852   -9.8870 H   0  0  0  0  0  0  0  0  0  0  0  0
   -6.5242   13.1961  -14.3048 H   0  0  0  0  0  0  0  0  0  0  0  0
   -6.6702    9.1804   -9.6379 H   0  0  0  0  0  0  0  0  0  0  0  0
   -8.0295    9.6121   -7.2551 H   0  0  0  0  0  0  0  0  0  0  0  0
   -4.8892    8.7741   -8.4833 H   0  0  0  0  0  0  0  0  0  0  0  0
   -2.4600   12.0040   -7.0537 H   0  0  0  0  0  0  0  0  0  0  0  0
   -2.6581    9.7501   -8.0474 H   0  0  0  0  0  0  0  0  0  0  0  0
   -6.3717   12.4489   -7.8389 H   0  0  0  0  0  0  0  0  0  0  0  0
   -6.3685   11.7163   -6.1988 H   0  0  0  0  0  0  0  0  0  0  0  0
   -5.4700   14.1039   -6.1424 H   0  0  0  0  0  0  0  0  0  0  0  0
   -3.9148   13.6392   -5.3732 H   0  0  0  0  0  0  0  0  0  0  0  0
   -3.9239   14.3505   -7.0227 H   0  0  0  0  0  0  0  0  0  0  0  0
  1  2  1  0  0  0  0
  1  3  1  0  0  0  0
  1  4  1  0  0  0  0
  2  5  1  0  0  0  0
  3  6  1  0  0  0  0
  5  6  1  0  0  0  0
  6 12  1  0  0  0  0
  7  8  2  0  0  0  0
  7 10  1  0  0  0  0
  7 12  1  0  0  0  0
  8  9  1  0  0  0  0
  8 11  1  0  0  0  0
  9 15  2  0  0  0  0
 10 14  2  0  0  0  0
 12 13  2  0  0  0  0
 14 15  1  0  0  0  0
 14 18  1  0  0  0  0
 15 16  1  0  0  0  0
 16 17  2  0  0  0  0
 17 18  1  0  0  0  0
 18 19  1  0  0  0  0
 19 20  2  0  0  0  0
 20 21  1  0  0  0  0
 20 25  1  0  0  0  0
 21 24  2  0  0  0  0
 22 23  2  0  0  0  0
 22 24  1  0  0  0  0
 23 25  1  0  0  0  0
 23 26  1  0  0  0  0
  1 27  1  0  0  0  0
  2 28  1  0  0  0  0
  2 29  1  0  0  0  0
  3 30  1  0  0  0  0
  3 31  1  0  0  0  0
  4 32  1  0  0  0  0
  5 33  1  0  0  0  0
  5 34  1  0  0  0  0
  9 35  1  0  0  0  0
 10 36  1  0  0  0  0
 11 37  1  0  0  0  0
 18 38  1  0  0  0  0
 19 39  1  0  0  0  0
 21 40  1  0  0  0  0
 22 41  1  0  0  0  0
 24 42  1  0  0  0  0
 25 43  1  0  0  0  0
 25 44  1  0  0  0  0
 26 45  1  0  0  0  0
 26 46  1  0  0  0  0
 26 47  1  0  0  0  0
M  END
> <Name>
13

> <IC50[uM]>
0.006

$$$$
13
  -OEChem-05192314333D
 Structure written by MMmdl.
 47 50  0     1  0  0  0  0  0999 V2000
   -2.2088   12.9419  -10.9697 C   0  0  1  0  0  0  0  0  0  0  0  0
   -2.1904   14.4671  -10.9424 C   0  0  0  0  0  0  0  0  0  0  0  0
   -3.6992   12.5876  -10.8377 C   0  0  0  0  0  0  0  0  0  0  0  0
   -1.6826   12.4744  -12.1795 O   0  0  0  0  0  0  0  0  0  0  0  0
   -3.5107   14.9139  -11.6089 C   0  0  0  0  0  0  0  0  0  0  0  0
   -4.3443   13.7200  -11.5243 N   0  0  0  0  0  0  0  0  0  0  0  0
   -6.3525   12.3601  -12.0338 C   0  0  0  0  0  0  0  0  0  0  0  0
   -6.9727   11.7556  -13.1375 C   0  0  0  0  0  0  0  0  0  0  0  0
   -7.7097   10.5633  -13.0339 C   0  0  0  0  0  0  0  0  0  0  0  0
   -6.5001   11.8056  -10.7491 C   0  0  0  0  0  0  0  0  0  0  0  0
   -6.8506   12.3073  -14.3824 O   0  0  0  0  0  0  0  0  0  0  0  0
   -5.5377   13.6382  -12.2001 C   0  0  0  0  0  0  0  0  0  0  0  0
   -5.9500   14.5444  -12.9177 O   0  0  0  0  0  0  0  0  0  0  0  0
   -7.2308   10.6159  -10.6131 C   0  0  0  0  0  0  0  0  0  0  0  0
   -7.8083   10.0113  -11.7524 C   0  0  0  0  0  0  0  0  0  0  0  0
   -8.4200    8.8675  -11.2880 N   0  0  0  0  0  0  0  0  0  0  0  0
   -8.2847    8.7400   -9.9757 N   0  0  0  0  0  0  0  0  0  0  0  0
   -7.6047    9.7473   -9.5145 C   0  0  0  0  0  0  0  0  0  0  0  0
   -7.3264    9.8951   -8.0245 C   0  0  0  0  0  0  0  0  0  0  0  0
   -5.9604   10.4805   -7.7353 C   0  0  0  0  0  0  0  0  0  0  0  0
   -4.8075    9.7596   -8.0491 C   0  0  0  0  0  0  0  0  0  0  0  0
   -3.4358   11.5809   -7.2415 C   0  0  0  0  0  0  0  0  0  0  0  0
   -4.5835   12.3061   -6.9225 C   0  0  0  0  0  0  0  0  0  0  0  0
   -3.5481   10.3107   -7.8024 C   0  0  0  0  0  0  0  0  0  0  0  0
   -5.8471   11.7541   -7.1666 C   0  0  0  0  0  0  0  0  0  0  0  0
   -4.4650   13.6954   -6.3241 C   0  0  0  0  0  0  0  0  0  0  0  0
   -1.6558   12.5461  -10.1051 H   0  0  0  0  0  0  0  0  0  0  0  0
   -2.1418   14.8314   -9.9056 H   0  0  0  0  0  0  0  0  0  0  0  0
   -1.3273   14.8503  -11.5065 H   0  0  0  0  0  0  0  0  0  0  0  0
   -3.9292   11.6343  -11.3361 H   0  0  0  0  0  0  0  0  0  0  0  0
   -4.0052   12.5329   -9.7825 H   0  0  0  0  0  0  0  0  0  0  0  0
   -1.6986   11.5246  -12.1863 H   0  0  0  0  0  0  0  0  0  0  0  0
   -3.9654   15.7526  -11.0614 H   0  0  0  0  0  0  0  0  0  0  0  0
   -3.3451   15.2065  -12.6563 H   0  0  0  0  0  0  0  0  0  0  0  0
   -8.1726   10.1006  -13.8930 H   0  0  0  0  0  0  0  0  0  0  0  0
   -6.0607   12.2852   -9.8870 H   0  0  0  0  0  0  0  0  0  0  0  0
   -6.5242   13.1961  -14.3048 H   0  0  0  0  0  0  0  0  0  0  0  0
   -8.0295    9.6121   -7.2551 H   0  0  0  0  0  0  0  0  0  0  0  0
   -4.8892    8.7741   -8.4833 H   0  0  0  0  0  0  0  0  0  0  0  0
   -2.4600   12.0040   -7.0537 H   0  0  0  0  0  0  0  0  0  0  0  0
   -3.0270    9.6184   -7.1248 H   0  0  0  0  0  0  0  0  0  0  0  0
   -3.0225   10.3437   -8.7681 H   0  0  0  0  0  0  0  0  0  0  0  0
   -6.3717   12.4489   -7.8389 H   0  0  0  0  0  0  0  0  0  0  0  0
   -6.3685   11.7163   -6.1988 H   0  0  0  0  0  0  0  0  0  0  0  0
   -5.4700   14.1039   -6.1424 H   0  0  0  0  0  0  0  0  0  0  0  0
   -3.9148   13.6392   -5.3732 H   0  0  0  0  0  0  0  0  0  0  0  0
   -3.9239   14.3505   -7.0227 H   0  0  0  0  0  0  0  0  0  0  0  0
  1  2  1  0  0  0  0
  1  3  1  0  0  0  0
  1  4  1  0  0  0  0
  2  5  1  0  0  0  0
  3  6  1  0  0  0  0
  5  6  1  0  0  0  0
  6 12  1  0  0  0  0
  7  8  2  0  0  0  0
  7 10  1  0  0  0  0
  7 12  1  0  0  0  0
  8  9  1  0  0  0  0
  8 11  1  0  0  0  0
  9 15  2  0  0  0  0
 10 14  2  0  0  0  0
 12 13  2  0  0  0  0
 14 15  1  0  0  0  0
 14 18  1  0  0  0  0
 15 16  1  0  0  0  0
 16 17  2  0  0  0  0
 17 18  1  0  0  0  0
 18 19  2  0  0  0  0
 19 20  1  0  0  0  0
 20 21  2  0  0  0  0
 20 25  1  0  0  0  0
 21 24  1  0  0  0  0
 22 23  2  0  0  0  0
 22 24  1  0  0  0  0
 23 25  1  0  0  0  0
 23 26  1  0  0  0  0
  1 27  1  0  0  0  0
  2 28  1  0  0  0  0
  2 29  1  0  0  0  0
  3 30  1  0  0  0  0
  3 31  1  0  0  0  0
  4 32  1  0  0  0  0
  5 33  1  0  0  0  0
  5 34  1  0  0  0  0
  9 35  1  0  0  0  0
 10 36  1  0  0  0  0
 11 37  1  0  0  0  0
 19 38  1  0  0  0  0
 21 39  1  0  0  0  0
 22 40  1  0  0  0  0
 24 41  1  0  0  0  0
 24 42  1  0  0  0  0
 25 43  1  0  0  0  0
 25 44  1  0  0  0  0
 26 45  1  0  0  0  0
 26 46  1  0  0  0  0
 26 47  1  0  0  0  0
M  END
> <Name>
13

> <IC50[uM]>
0.006

$$$$
13
  -OEChem-05192314333D
 Structure written by MMmdl.
 47 50  0     1  0  0  0  0  0999 V2000
   -2.2088   12.9419  -10.9697 C   0  0  1  0  0  0  0  0  0  0  0  0
   -2.1904   14.4671  -10.9424 C   0  0  0  0  0  0  0  0  0  0  0  0
   -3.6992   12.5876  -10.8377 C   0  0  0  0  0  0  0  0  0  0  0  0
   -1.6826   12.4744  -12.1795 O   0  0  0  0  0  0  0  0  0  0  0  0
   -3.5107   14.9139  -11.6089 C   0  0  0  0  0  0  0  0  0  0  0  0
   -4.3443   13.7200  -11.5243 N   0  0  0  0  0  0  0  0  0  0  0  0
   -6.3525   12.3601  -12.0338 C   0  0  0  0  0  0  0  0  0  0  0  0
   -6.9727   11.7556  -13.1375 C   0  0  0  0  0  0  0  0  0  0  0  0
   -7.7097   10.5633  -13.0339 C   0  0  0  0  0  0  0  0  0  0  0  0
   -6.5001   11.8056  -10.7491 C   0  0  0  0  0  0  0  0  0  0  0  0
   -6.8506   12.3073  -14.3824 O   0  0  0  0  0  0  0  0  0  0  0  0
   -5.5377   13.6382  -12.2001 C   0  0  0  0  0  0  0  0  0  0  0  0
   -5.9500   14.5444  -12.9177 O   0  0  0  0  0  0  0  0  0  0  0  0
   -7.2308   10.6159  -10.6131 C   0  0  0  0  0  0  0  0  0  0  0  0
   -7.8083   10.0113  -11.7524 C   0  0  0  0  0  0  0  0  0  0  0  0
   -8.4200    8.8675  -11.2880 N   0  0  0  0  0  0  0  0  0  0  0  0
   -8.2847    8.7400   -9.9757 N   0  0  0  0  0  0  0  0  0  0  0  0
   -7.6047    9.7473   -9.5145 C   0  0  0  0  0  0  0  0  0  0  0  0
   -7.3264    9.8951   -8.0245 C   0  0  0  0  0  0  0  0  0  0  0  0
   -5.9604   10.4805   -7.7353 C   0  0  0  0  0  0  0  0  0  0  0  0
   -4.8075    9.7596   -8.0491 C   0  0  0  0  0  0  0  0  0  0  0  0
   -3.4358   11.5809   -7.2415 C   0  0  0  0  0  0  0  0  0  0  0  0
   -4.5835   12.3061   -6.9225 C   0  0  0  0  0  0  0  0  0  0  0  0
   -3.5481   10.3107   -7.8024 C   0  0  0  0  0  0  0  0  0  0  0  0
   -5.8471   11.7541   -7.1666 C   0  0  0  0  0  0  0  0  0  0  0  0
   -4.4650   13.6954   -6.3241 C   0  0  0  0  0  0  0  0  0  0  0  0
   -1.6558   12.5461  -10.1051 H   0  0  0  0  0  0  0  0  0  0  0  0
   -2.1418   14.8314   -9.9056 H   0  0  0  0  0  0  0  0  0  0  0  0
   -1.3273   14.8503  -11.5065 H   0  0  0  0  0  0  0  0  0  0  0  0
   -3.9292   11.6343  -11.3361 H   0  0  0  0  0  0  0  0  0  0  0  0
   -4.0052   12.5329   -9.7825 H   0  0  0  0  0  0  0  0  0  0  0  0
   -1.6986   11.5246  -12.1863 H   0  0  0  0  0  0  0  0  0  0  0  0
   -3.9654   15.7526  -11.0614 H   0  0  0  0  0  0  0  0  0  0  0  0
   -3.3451   15.2065  -12.6563 H   0  0  0  0  0  0  0  0  0  0  0  0
   -5.4494   11.7544  -12.1998 H   0  0  0  0  0  0  0  0  0  0  0  0
   -8.7298   10.7663  -13.3920 H   0  0  0  0  0  0  0  0  0  0  0  0
   -7.2340    9.8162  -13.6862 H   0  0  0  0  0  0  0  0  0  0  0  0
   -6.0607   12.2852   -9.8870 H   0  0  0  0  0  0  0  0  0  0  0  0
   -6.8802    9.4462  -11.9237 H   0  0  0  0  0  0  0  0  0  0  0  0
   -8.0295    9.6121   -7.2551 H   0  0  0  0  0  0  0  0  0  0  0  0
   -4.8892    8.7741   -8.4833 H   0  0  0  0  0  0  0  0  0  0  0  0
   -2.4600   12.0040   -7.0537 H   0  0  0  0  0  0  0  0  0  0  0  0
   -2.6581    9.7501   -8.0474 H   0  0  0  0  0  0  0  0  0  0  0  0
   -6.7366   12.3128   -6.9153 H   0  0  0  0  0  0  0  0  0  0  0  0
   -4.4364   14.4418   -7.1316 H   0  0  0  0  0  0  0  0  0  0  0  0
   -5.3317   13.8902   -5.6754 H   0  0  0  0  0  0  0  0  0  0  0  0
   -3.5409   13.7615   -5.7311 H   0  0  0  0  0  0  0  0  0  0  0  0
  1  2  1  0  0  0  0
  1  3  1  0  0  0  0
  1  4  1  0  0  0  0
  2  5  1  0  0  0  0
  3  6  1  0  0  0  0
  5  6  1  0  0  0  0
  6 12  1  0  0  0  0
  7  8  1  0  0  0  0
  7 10  1  0  0  0  0
  7 12  1  0  0  0  0
  8  9  1  0  0  0  0
  8 11  2  0  0  0  0
  9 15  1  0  0  0  0
 10 14  2  0  0  0  0
 12 13  2  0  0  0  0
 14 15  1  0  0  0  0
 14 18  1  0  0  0  0
 15 16  1  0  0  0  0
 16 17  2  0  0  0  0
 17 18  1  0  0  0  0
 18 19  2  0  0  0  0
 19 20  1  0  0  0  0
 20 21  2  0  0  0  0
 20 25  1  0  0  0  0
 21 24  1  0  0  0  0
 22 23  1  0  0  0  0
 22 24  2  0  0  0  0
 23 25  2  0  0  0  0
 23 26  1  0  0  0  0
  1 27  1  0  0  0  0
  2 28  1  0  0  0  0
  2 29  1  0  0  0  0
  3 30  1  0  0  0  0
  3 31  1  0  0  0  0
  4 32  1  0  0  0  0
  5 33  1  0  0  0  0
  5 34  1  0  0  0  0
  7 35  1  0  0  0  0
  9 36  1  0  0  0  0
  9 37  1  0  0  0  0
 10 38  1  0  0  0  0
 15 39  1  0  0  0  0
 19 40  1  0  0  0  0
 21 41  1  0  0  0  0
 22 42  1  0  0  0  0
 24 43  1  0  0  0  0
 25 44  1  0  0  0  0
 26 45  1  0  0  0  0
 26 46  1  0  0  0  0
 26 47  1  0  0  0  0
M  END
> <Name>
13

> <IC50[uM]>
0.006

$$$$
13
  -OEChem-05192314333D
 Structure written by MMmdl.
 47 50  0     1  0  0  0  0  0999 V2000
   -2.2088   12.9419  -10.9697 C   0  0  1  0  0  0  0  0  0  0  0  0
   -2.1904   14.4671  -10.9424 C   0  0  0  0  0  0  0  0  0  0  0  0
   -3.6992   12.5876  -10.8377 C   0  0  0  0  0  0  0  0  0  0  0  0
   -1.6826   12.4744  -12.1795 O   0  0  0  0  0  0  0  0  0  0  0  0
   -3.5107   14.9139  -11.6089 C   0  0  0  0  0  0  0  0  0  0  0  0
   -4.3443   13.7200  -11.5243 N   0  0  0  0  0  0  0  0  0  0  0  0
   -6.3525   12.3601  -12.0338 C   0  0  0  0  0  0  0  0  0  0  0  0
   -6.9727   11.7556  -13.1375 C   0  0  0  0  0  0  0  0  0  0  0  0
   -7.7097   10.5633  -13.0339 C   0  0  0  0  0  0  0  0  0  0  0  0
   -6.5001   11.8056  -10.7491 C   0  0  0  0  0  0  0  0  0  0  0  0
   -6.8506   12.3073  -14.3824 O   0  0  0  0  0  0  0  0  0  0  0  0
   -5.5377   13.6382  -12.2001 C   0  0  0  0  0  0  0  0  0  0  0  0
   -5.9500   14.5444  -12.9177 O   0  0  0  0  0  0  0  0  0  0  0  0
   -7.2308   10.6159  -10.6131 C   0  0  0  0  0  0  0  0  0  0  0  0
   -7.8083   10.0113  -11.7524 C   0  0  0  0  0  0  0  0  0  0  0  0
   -8.4200    8.8675  -11.2880 N   0  0  0  0  0  0  0  0  0  0  0  0
   -8.2847    8.7400   -9.9757 N   0  0  0  0  0  0  0  0  0  0  0  0
   -7.6047    9.7473   -9.5145 C   0  0  0  0  0  0  0  0  0  0  0  0
   -7.3264    9.8951   -8.0245 C   0  0  0  0  0  0  0  0  0  0  0  0
   -5.9604   10.4805   -7.7353 C   0  0  0  0  0  0  0  0  0  0  0  0
   -4.8075    9.7596   -8.0491 C   0  0  0  0  0  0  0  0  0  0  0  0
   -3.4358   11.5809   -7.2415 C   0  0  0  0  0  0  0  0  0  0  0  0
   -4.5835   12.3061   -6.9225 C   0  0  0  0  0  0  0  0  0  0  0  0
   -3.5481   10.3107   -7.8024 C   0  0  0  0  0  0  0  0  0  0  0  0
   -5.8471   11.7541   -7.1666 C   0  0  0  0  0  0  0  0  0  0  0  0
   -4.4650   13.6954   -6.3241 C   0  0  0  0  0  0  0  0  0  0  0  0
   -1.6558   12.5461  -10.1051 H   0  0  0  0  0  0  0  0  0  0  0  0
   -2.1418   14.8314   -9.9056 H   0  0  0  0  0  0  0  0  0  0  0  0
   -1.3273   14.8503  -11.5065 H   0  0  0  0  0  0  0  0  0  0  0  0
   -3.9292   11.6343  -11.3361 H   0  0  0  0  0  0  0  0  0  0  0  0
   -4.0052   12.5329   -9.7825 H   0  0  0  0  0  0  0  0  0  0  0  0
   -1.6986   11.5246  -12.1863 H   0  0  0  0  0  0  0  0  0  0  0  0
   -3.9654   15.7526  -11.0614 H   0  0  0  0  0  0  0  0  0  0  0  0
   -3.3451   15.2065  -12.6563 H   0  0  0  0  0  0  0  0  0  0  0  0
   -8.7298   10.7663  -13.3920 H   0  0  0  0  0  0  0  0  0  0  0  0
   -7.2340    9.8162  -13.6862 H   0  0  0  0  0  0  0  0  0  0  0  0
   -6.0607   12.2852   -9.8870 H   0  0  0  0  0  0  0  0  0  0  0  0
   -6.3117   10.0311  -10.7657 H   0  0  0  0  0  0  0  0  0  0  0  0
   -6.8802    9.4462  -11.9237 H   0  0  0  0  0  0  0  0  0  0  0  0
   -8.0295    9.6121   -7.2551 H   0  0  0  0  0  0  0  0  0  0  0  0
   -4.8892    8.7741   -8.4833 H   0  0  0  0  0  0  0  0  0  0  0  0
   -2.4600   12.0040   -7.0537 H   0  0  0  0  0  0  0  0  0  0  0  0
   -2.6581    9.7501   -8.0474 H   0  0  0  0  0  0  0  0  0  0  0  0
   -6.7366   12.3128   -6.9153 H   0  0  0  0  0  0  0  0  0  0  0  0
   -4.4364   14.4418   -7.1316 H   0  0  0  0  0  0  0  0  0  0  0  0
   -5.3317   13.8902   -5.6754 H   0  0  0  0  0  0  0  0  0  0  0  0
   -3.5409   13.7615   -5.7311 H   0  0  0  0  0  0  0  0  0  0  0  0
  1  2  1  0  0  0  0
  1  3  1  0  0  0  0
  1  4  1  0  0  0  0
  2  5  1  0  0  0  0
  3  6  1  0  0  0  0
  5  6  1  0  0  0  0
  6 12  1  0  0  0  0
  7  8  1  0  0  0  0
  7 10  2  0  0  0  0
  7 12  1  0  0  0  0
  8  9  1  0  0  0  0
  8 11  2  0  0  0  0
  9 15  1  0  0  0  0
 10 14  1  0  0  0  0
 12 13  2  0  0  0  0
 14 15  1  0  0  0  0
 14 18  1  0  0  0  0
 15 16  1  0  0  0  0
 16 17  2  0  0  0  0
 17 18  1  0  0  0  0
 18 19  2  0  0  0  0
 19 20  1  0  0  0  0
 20 21  2  0  0  0  0
 20 25  1  0  0  0  0
 21 24  1  0  0  0  0
 22 23  1  0  0  0  0
 22 24  2  0  0  0  0
 23 25  2  0  0  0  0
 23 26  1  0  0  0  0
  1 27  1  0  0  0  0
  2 28  1  0  0  0  0
  2 29  1  0  0  0  0
  3 30  1  0  0  0  0
  3 31  1  0  0  0  0
  4 32  1  0  0  0  0
  5 33  1  0  0  0  0
  5 34  1  0  0  0  0
  9 35  1  0  0  0  0
  9 36  1  0  0  0  0
 10 37  1  0  0  0  0
 14 38  1  0  0  0  0
 15 39  1  0  0  0  0
 19 40  1  0  0  0  0
 21 41  1  0  0  0  0
 22 42  1  0  0  0  0
 24 43  1  0  0  0  0
 25 44  1  0  0  0  0
 26 45  1  0  0  0  0
 26 46  1  0  0  0  0
 26 47  1  0  0  0  0
M  END
> <Name>
13

> <IC50[uM]>
0.006

$$$$
13
  -OEChem-05192314333D
 Structure written by MMmdl.
 47 50  0     1  0  0  0  0  0999 V2000
   -2.2088   12.9419  -10.9697 C   0  0  1  0  0  0  0  0  0  0  0  0
   -2.1904   14.4671  -10.9424 C   0  0  0  0  0  0  0  0  0  0  0  0
   -3.6992   12.5876  -10.8377 C   0  0  0  0  0  0  0  0  0  0  0  0
   -1.6826   12.4744  -12.1795 O   0  0  0  0  0  0  0  0  0  0  0  0
   -3.5107   14.9139  -11.6089 C   0  0  0  0  0  0  0  0  0  0  0  0
   -4.3443   13.7200  -11.5243 N   0  0  0  0  0  0  0  0  0  0  0  0
   -6.3525   12.3601  -12.0338 C   0  0  0  0  0  0  0  0  0  0  0  0
   -6.9727   11.7556  -13.1375 C   0  0  0  0  0  0  0  0  0  0  0  0
   -7.7097   10.5633  -13.0339 C   0  0  0  0  0  0  0  0  0  0  0  0
   -6.5001   11.8056  -10.7491 C   0  0  0  0  0  0  0  0  0  0  0  0
   -6.8506   12.3073  -14.3824 O   0  0  0  0  0  0  0  0  0  0  0  0
   -5.5377   13.6382  -12.2001 C   0  0  0  0  0  0  0  0  0  0  0  0
   -5.9500   14.5444  -12.9177 O   0  0  0  0  0  0  0  0  0  0  0  0
   -7.2308   10.6159  -10.6131 C   0  0  0  0  0  0  0  0  0  0  0  0
   -7.8083   10.0113  -11.7524 C   0  0  0  0  0  0  0  0  0  0  0  0
   -8.4200    8.8675  -11.2880 N   0  0  0  0  0  0  0  0  0  0  0  0
   -8.2847    8.7400   -9.9757 N   0  0  0  0  0  0  0  0  0  0  0  0
   -7.6047    9.7473   -9.5145 C   0  0  0  0  0  0  0  0  0  0  0  0
   -7.3264    9.8951   -8.0245 C   0  0  0  0  0  0  0  0  0  0  0  0
   -5.9604   10.4805   -7.7353 C   0  0  0  0  0  0  0  0  0  0  0  0
   -4.8075    9.7596   -8.0491 C   0  0  0  0  0  0  0  0  0  0  0  0
   -3.4358   11.5809   -7.2415 C   0  0  0  0  0  0  0  0  0  0  0  0
   -4.5835   12.3061   -6.9225 C   0  0  0  0  0  0  0  0  0  0  0  0
   -3.5481   10.3107   -7.8024 C   0  0  0  0  0  0  0  0  0  0  0  0
   -5.8471   11.7541   -7.1666 C   0  0  0  0  0  0  0  0  0  0  0  0
   -4.4650   13.6954   -6.3241 C   0  0  0  0  0  0  0  0  0  0  0  0
   -1.6558   12.5461  -10.1051 H   0  0  0  0  0  0  0  0  0  0  0  0
   -2.1418   14.8314   -9.9056 H   0  0  0  0  0  0  0  0  0  0  0  0
   -1.3273   14.8503  -11.5065 H   0  0  0  0  0  0  0  0  0  0  0  0
   -3.9292   11.6343  -11.3361 H   0  0  0  0  0  0  0  0  0  0  0  0
   -4.0052   12.5329   -9.7825 H   0  0  0  0  0  0  0  0  0  0  0  0
   -1.6986   11.5246  -12.1863 H   0  0  0  0  0  0  0  0  0  0  0  0
   -3.9654   15.7526  -11.0614 H   0  0  0  0  0  0  0  0  0  0  0  0
   -3.3451   15.2065  -12.6563 H   0  0  0  0  0  0  0  0  0  0  0  0
   -5.4494   11.7544  -12.1998 H   0  0  0  0  0  0  0  0  0  0  0  0
   -8.1726   10.1006  -13.8930 H   0  0  0  0  0  0  0  0  0  0  0  0
   -5.4892   11.6119  -10.3610 H   0  0  0  0  0  0  0  0  0  0  0  0
   -6.9942   12.5634  -10.1232 H   0  0  0  0  0  0  0  0  0  0  0  0
   -6.3117   10.0311  -10.7657 H   0  0  0  0  0  0  0  0  0  0  0  0
   -8.0295    9.6121   -7.2551 H   0  0  0  0  0  0  0  0  0  0  0  0
   -4.8892    8.7741   -8.4833 H   0  0  0  0  0  0  0  0  0  0  0  0
   -2.4600   12.0040   -7.0537 H   0  0  0  0  0  0  0  0  0  0  0  0
   -2.6581    9.7501   -8.0474 H   0  0  0  0  0  0  0  0  0  0  0  0
   -6.7366   12.3128   -6.9153 H   0  0  0  0  0  0  0  0  0  0  0  0
   -4.4364   14.4418   -7.1316 H   0  0  0  0  0  0  0  0  0  0  0  0
   -5.3317   13.8902   -5.6754 H   0  0  0  0  0  0  0  0  0  0  0  0
   -3.5409   13.7615   -5.7311 H   0  0  0  0  0  0  0  0  0  0  0  0
  1  2  1  0  0  0  0
  1  3  1  0  0  0  0
  1  4  1  0  0  0  0
  2  5  1  0  0  0  0
  3  6  1  0  0  0  0
  5  6  1  0  0  0  0
  6 12  1  0  0  0  0
  7  8  1  0  0  0  0
  7 10  1  0  0  0  0
  7 12  1  0  0  0  0
  8  9  1  0  0  0  0
  8 11  2  0  0  0  0
  9 15  2  0  0  0  0
 10 14  1  0  0  0  0
 12 13  2  0  0  0  0
 14 15  1  0  0  0  0
 14 18  1  0  0  0  0
 15 16  1  0  0  0  0
 16 17  2  0  0  0  0
 17 18  1  0  0  0  0
 18 19  2  0  0  0  0
 19 20  1  0  0  0  0
 20 21  2  0  0  0  0
 20 25  1  0  0  0  0
 21 24  1  0  0  0  0
 22 23  1  0  0  0  0
 22 24  2  0  0  0  0
 23 25  2  0  0  0  0
 23 26  1  0  0  0  0
  1 27  1  0  0  0  0
  2 28  1  0  0  0  0
  2 29  1  0  0  0  0
  3 30  1  0  0  0  0
  3 31  1  0  0  0  0
  4 32  1  0  0  0  0
  5 33  1  0  0  0  0
  5 34  1  0  0  0  0
  7 35  1  0  0  0  0
  9 36  1  0  0  0  0
 10 37  1  0  0  0  0
 10 38  1  0  0  0  0
 14 39  1  0  0  0  0
 19 40  1  0  0  0  0
 21 41  1  0  0  0  0
 22 42  1  0  0  0  0
 24 43  1  0  0  0  0
 25 44  1  0  0  0  0
 26 45  1  0  0  0  0
 26 46  1  0  0  0  0
 26 47  1  0  0  0  0
M  END
> <Name>
13

> <IC50[uM]>
0.006

$$$$
13
  -OEChem-05192314333D
 Structure written by MMmdl.
 47 50  0     1  0  0  0  0  0999 V2000
   -2.2088   12.9419  -10.9697 C   0  0  1  0  0  0  0  0  0  0  0  0
   -2.1904   14.4671  -10.9424 C   0  0  0  0  0  0  0  0  0  0  0  0
   -3.6992   12.5876  -10.8377 C   0  0  0  0  0  0  0  0  0  0  0  0
   -1.6826   12.4744  -12.1795 O   0  0  0  0  0  0  0  0  0  0  0  0
   -3.5107   14.9139  -11.6089 C   0  0  0  0  0  0  0  0  0  0  0  0
   -4.3443   13.7200  -11.5243 N   0  0  0  0  0  0  0  0  0  0  0  0
   -6.3525   12.3601  -12.0338 C   0  0  0  0  0  0  0  0  0  0  0  0
   -6.9727   11.7556  -13.1375 C   0  0  0  0  0  0  0  0  0  0  0  0
   -7.7097   10.5633  -13.0339 C   0  0  0  0  0  0  0  0  0  0  0  0
   -6.5001   11.8056  -10.7491 C   0  0  0  0  0  0  0  0  0  0  0  0
   -6.8506   12.3073  -14.3824 O   0  0  0  0  0  0  0  0  0  0  0  0
   -5.5377   13.6382  -12.2001 C   0  0  0  0  0  0  0  0  0  0  0  0
   -5.9500   14.5444  -12.9177 O   0  0  0  0  0  0  0  0  0  0  0  0
   -7.2308   10.6159  -10.6131 C   0  0  0  0  0  0  0  0  0  0  0  0
   -7.8083   10.0113  -11.7524 C   0  0  0  0  0  0  0  0  0  0  0  0
   -8.4200    8.8675  -11.2880 N   0  0  0  0  0  0  0  0  0  0  0  0
   -8.2847    8.7400   -9.9757 N   0  0  0  0  0  0  0  0  0  0  0  0
   -7.6047    9.7473   -9.5145 C   0  0  0  0  0  0  0  0  0  0  0  0
   -7.3264    9.8951   -8.0245 C   0  0  0  0  0  0  0  0  0  0  0  0
   -5.9604   10.4805   -7.7353 C   0  0  0  0  0  0  0  0  0  0  0  0
   -4.8075    9.7596   -8.0491 C   0  0  0  0  0  0  0  0  0  0  0  0
   -3.4358   11.5809   -7.2415 C   0  0  0  0  0  0  0  0  0  0  0  0
   -4.5835   12.3061   -6.9225 C   0  0  0  0  0  0  0  0  0  0  0  0
   -3.5481   10.3107   -7.8024 C   0  0  0  0  0  0  0  0  0  0  0  0
   -5.8471   11.7541   -7.1666 C   0  0  0  0  0  0  0  0  0  0  0  0
   -4.4650   13.6954   -6.3241 C   0  0  0  0  0  0  0  0  0  0  0  0
   -1.6558   12.5461  -10.1051 H   0  0  0  0  0  0  0  0  0  0  0  0
   -2.1418   14.8314   -9.9056 H   0  0  0  0  0  0  0  0  0  0  0  0
   -1.3273   14.8503  -11.5065 H   0  0  0  0  0  0  0  0  0  0  0  0
   -3.9292   11.6343  -11.3361 H   0  0  0  0  0  0  0  0  0  0  0  0
   -4.0052   12.5329   -9.7825 H   0  0  0  0  0  0  0  0  0  0  0  0
   -1.6986   11.5246  -12.1863 H   0  0  0  0  0  0  0  0  0  0  0  0
   -3.9654   15.7526  -11.0614 H   0  0  0  0  0  0  0  0  0  0  0  0
   -3.3451   15.2065  -12.6563 H   0  0  0  0  0  0  0  0  0  0  0  0
   -5.4494   11.7544  -12.1998 H   0  0  0  0  0  0  0  0  0  0  0  0
   -8.7298   10.7663  -13.3920 H   0  0  0  0  0  0  0  0  0  0  0  0
   -7.2340    9.8162  -13.6862 H   0  0  0  0  0  0  0  0  0  0  0  0
   -5.4892   11.6119  -10.3610 H   0  0  0  0  0  0  0  0  0  0  0  0
   -6.9942   12.5634  -10.1232 H   0  0  0  0  0  0  0  0  0  0  0  0
   -8.0295    9.6121   -7.2551 H   0  0  0  0  0  0  0  0  0  0  0  0
   -4.8892    8.7741   -8.4833 H   0  0  0  0  0  0  0  0  0  0  0  0
   -2.4600   12.0040   -7.0537 H   0  0  0  0  0  0  0  0  0  0  0  0
   -2.6581    9.7501   -8.0474 H   0  0  0  0  0  0  0  0  0  0  0  0
   -6.7366   12.3128   -6.9153 H   0  0  0  0  0  0  0  0  0  0  0  0
   -4.4364   14.4418   -7.1316 H   0  0  0  0  0  0  0  0  0  0  0  0
   -5.3317   13.8902   -5.6754 H   0  0  0  0  0  0  0  0  0  0  0  0
   -3.5409   13.7615   -5.7311 H   0  0  0  0  0  0  0  0  0  0  0  0
  1  2  1  0  0  0  0
  1  3  1  0  0  0  0
  1  4  1  0  0  0  0
  2  5  1  0  0  0  0
  3  6  1  0  0  0  0
  5  6  1  0  0  0  0
  6 12  1  0  0  0  0
  7  8  1  0  0  0  0
  7 10  1  0  0  0  0
  7 12  1  0  0  0  0
  8  9  1  0  0  0  0
  8 11  2  0  0  0  0
  9 15  1  0  0  0  0
 10 14  1  0  0  0  0
 12 13  2  0  0  0  0
 14 15  2  0  0  0  0
 14 18  1  0  0  0  0
 15 16  1  0  0  0  0
 16 17  2  0  0  0  0
 17 18  1  0  0  0  0
 18 19  2  0  0  0  0
 19 20  1  0  0  0  0
 20 21  2  0  0  0  0
 20 25  1  0  0  0  0
 21 24  1  0  0  0  0
 22 23  1  0  0  0  0
 22 24  2  0  0  0  0
 23 25  2  0  0  0  0
 23 26  1  0  0  0  0
  1 27  1  0  0  0  0
  2 28  1  0  0  0  0
  2 29  1  0  0  0  0
  3 30  1  0  0  0  0
  3 31  1  0  0  0  0
  4 32  1  0  0  0  0
  5 33  1  0  0  0  0
  5 34  1  0  0  0  0
  7 35  1  0  0  0  0
  9 36  1  0  0  0  0
  9 37  1  0  0  0  0
 10 38  1  0  0  0  0
 10 39  1  0  0  0  0
 19 40  1  0  0  0  0
 21 41  1  0  0  0  0
 22 42  1  0  0  0  0
 24 43  1  0  0  0  0
 25 44  1  0  0  0  0
 26 45  1  0  0  0  0
 26 46  1  0  0  0  0
 26 47  1  0  0  0  0
M  END
> <Name>
13

> <IC50[uM]>
0.006

$$$$
13
  -OEChem-05192314333D
 Structure written by MMmdl.
 47 50  0     1  0  0  0  0  0999 V2000
   -2.2088   12.9419  -10.9697 C   0  0  1  0  0  0  0  0  0  0  0  0
   -2.1904   14.4671  -10.9424 C   0  0  0  0  0  0  0  0  0  0  0  0
   -3.6992   12.5876  -10.8377 C   0  0  0  0  0  0  0  0  0  0  0  0
   -1.6826   12.4744  -12.1795 O   0  0  0  0  0  0  0  0  0  0  0  0
   -3.5107   14.9139  -11.6089 C   0  0  0  0  0  0  0  0  0  0  0  0
   -4.3443   13.7200  -11.5243 N   0  0  0  0  0  0  0  0  0  0  0  0
   -6.3525   12.3601  -12.0338 C   0  0  0  0  0  0  0  0  0  0  0  0
   -6.9727   11.7556  -13.1375 C   0  0  0  0  0  0  0  0  0  0  0  0
   -7.7097   10.5633  -13.0339 C   0  0  0  0  0  0  0  0  0  0  0  0
   -6.5001   11.8056  -10.7491 C   0  0  0  0  0  0  0  0  0  0  0  0
   -6.8506   12.3073  -14.3824 O   0  0  0  0  0  0  0  0  0  0  0  0
   -5.5377   13.6382  -12.2001 C   0  0  0  0  0  0  0  0  0  0  0  0
   -5.9500   14.5444  -12.9177 O   0  0  0  0  0  0  0  0  0  0  0  0
   -7.2308   10.6159  -10.6131 C   0  0  0  0  0  0  0  0  0  0  0  0
   -7.8083   10.0113  -11.7524 C   0  0  0  0  0  0  0  0  0  0  0  0
   -8.4200    8.8675  -11.2880 N   0  0  0  0  0  0  0  0  0  0  0  0
   -8.2847    8.7400   -9.9757 N   0  0  0  0  0  0  0  0  0  0  0  0
   -7.6047    9.7473   -9.5145 C   0  0  0  0  0  0  0  0  0  0  0  0
   -7.3264    9.8951   -8.0245 C   0  0  0  0  0  0  0  0  0  0  0  0
   -5.9604   10.4805   -7.7353 C   0  0  0  0  0  0  0  0  0  0  0  0
   -4.8075    9.7596   -8.0491 C   0  0  0  0  0  0  0  0  0  0  0  0
   -3.4358   11.5809   -7.2415 C   0  0  0  0  0  0  0  0  0  0  0  0
   -4.5835   12.3061   -6.9225 C   0  0  0  0  0  0  0  0  0  0  0  0
   -3.5481   10.3107   -7.8024 C   0  0  0  0  0  0  0  0  0  0  0  0
   -5.8471   11.7541   -7.1666 C   0  0  0  0  0  0  0  0  0  0  0  0
   -4.4650   13.6954   -6.3241 C   0  0  0  0  0  0  0  0  0  0  0  0
   -1.6558   12.5461  -10.1051 H   0  0  0  0  0  0  0  0  0  0  0  0
   -2.1418   14.8314   -9.9056 H   0  0  0  0  0  0  0  0  0  0  0  0
   -1.3273   14.8503  -11.5065 H   0  0  0  0  0  0  0  0  0  0  0  0
   -3.9292   11.6343  -11.3361 H   0  0  0  0  0  0  0  0  0  0  0  0
   -4.0052   12.5329   -9.7825 H   0  0  0  0  0  0  0  0  0  0  0  0
   -1.6986   11.5246  -12.1863 H   0  0  0  0  0  0  0  0  0  0  0  0
   -3.9654   15.7526  -11.0614 H   0  0  0  0  0  0  0  0  0  0  0  0
   -3.3451   15.2065  -12.6563 H   0  0  0  0  0  0  0  0  0  0  0  0
   -5.4494   11.7544  -12.1998 H   0  0  0  0  0  0  0  0  0  0  0  0
   -8.1726   10.1006  -13.8930 H   0  0  0  0  0  0  0  0  0  0  0  0
   -6.0607   12.2852   -9.8870 H   0  0  0  0  0  0  0  0  0  0  0  0
   -6.6702    9.1804   -9.6379 H   0  0  0  0  0  0  0  0  0  0  0  0
   -8.0906   10.5553   -7.5885 H   0  0  0  0  0  0  0  0  0  0  0  0
   -7.3891    8.9020   -7.5556 H   0  0  0  0  0  0  0  0  0  0  0  0
   -4.8892    8.7741   -8.4833 H   0  0  0  0  0  0  0  0  0  0  0  0
   -2.4600   12.0040   -7.0537 H   0  0  0  0  0  0  0  0  0  0  0  0
   -2.6581    9.7501   -8.0474 H   0  0  0  0  0  0  0  0  0  0  0  0
   -6.7366   12.3128   -6.9153 H   0  0  0  0  0  0  0  0  0  0  0  0
   -4.4364   14.4418   -7.1316 H   0  0  0  0  0  0  0  0  0  0  0  0
   -5.3317   13.8902   -5.6754 H   0  0  0  0  0  0  0  0  0  0  0  0
   -3.5409   13.7615   -5.7311 H   0  0  0  0  0  0  0  0  0  0  0  0
  1  2  1  0  0  0  0
  1  3  1  0  0  0  0
  1  4  1  0  0  0  0
  2  5  1  0  0  0  0
  3  6  1  0  0  0  0
  5  6  1  0  0  0  0
  6 12  1  0  0  0  0
  7  8  1  0  0  0  0
  7 10  1  0  0  0  0
  7 12  1  0  0  0  0
  8  9  1  0  0  0  0
  8 11  2  0  0  0  0
  9 15  2  0  0  0  0
 10 14  2  0  0  0  0
 12 13  2  0  0  0  0
 14 15  1  0  0  0  0
 14 18  1  0  0  0  0
 15 16  1  0  0  0  0
 16 17  2  0  0  0  0
 17 18  1  0  0  0  0
 18 19  1  0  0  0  0
 19 20  1  0  0  0  0
 20 21  2  0  0  0  0
 20 25  1  0  0  0  0
 21 24  1  0  0  0  0
 22 23  1  0  0  0  0
 22 24  2  0  0  0  0
 23 25  2  0  0  0  0
 23 26  1  0  0  0  0
  1 27  1  0  0  0  0
  2 28  1  0  0  0  0
  2 29  1  0  0  0  0
  3 30  1  0  0  0  0
  3 31  1  0  0  0  0
  4 32  1  0  0  0  0
  5 33  1  0  0  0  0
  5 34  1  0  0  0  0
  7 35  1  0  0  0  0
  9 36  1  0  0  0  0
 10 37  1  0  0  0  0
 18 38  1  0  0  0  0
 19 39  1  0  0  0  0
 19 40  1  0  0  0  0
 21 41  1  0  0  0  0
 22 42  1  0  0  0  0
 24 43  1  0  0  0  0
 25 44  1  0  0  0  0
 26 45  1  0  0  0  0
 26 46  1  0  0  0  0
 26 47  1  0  0  0  0
M  END
> <Name>
13

> <IC50[uM]>
0.006

$$$$
13
  -OEChem-05192314333D
 Structure written by MMmdl.
 47 50  0     1  0  0  0  0  0999 V2000
   -2.2088   12.9419  -10.9697 C   0  0  1  0  0  0  0  0  0  0  0  0
   -2.1904   14.4671  -10.9424 C   0  0  0  0  0  0  0  0  0  0  0  0
   -3.6992   12.5876  -10.8377 C   0  0  0  0  0  0  0  0  0  0  0  0
   -1.6826   12.4744  -12.1795 O   0  0  0  0  0  0  0  0  0  0  0  0
   -3.5107   14.9139  -11.6089 C   0  0  0  0  0  0  0  0  0  0  0  0
   -4.3443   13.7200  -11.5243 N   0  0  0  0  0  0  0  0  0  0  0  0
   -6.3525   12.3601  -12.0338 C   0  0  0  0  0  0  0  0  0  0  0  0
   -6.9727   11.7556  -13.1375 C   0  0  0  0  0  0  0  0  0  0  0  0
   -7.7097   10.5633  -13.0339 C   0  0  0  0  0  0  0  0  0  0  0  0
   -6.5001   11.8056  -10.7491 C   0  0  0  0  0  0  0  0  0  0  0  0
   -6.8506   12.3073  -14.3824 O   0  0  0  0  0  0  0  0  0  0  0  0
   -5.5377   13.6382  -12.2001 C   0  0  0  0  0  0  0  0  0  0  0  0
   -5.9500   14.5444  -12.9177 O   0  0  0  0  0  0  0  0  0  0  0  0
   -7.2308   10.6159  -10.6131 C   0  0  0  0  0  0  0  0  0  0  0  0
   -7.8083   10.0113  -11.7524 C   0  0  0  0  0  0  0  0  0  0  0  0
   -8.4200    8.8675  -11.2880 N   0  0  0  0  0  0  0  0  0  0  0  0
   -8.2847    8.7400   -9.9757 N   0  0  0  0  0  0  0  0  0  0  0  0
   -7.6047    9.7473   -9.5145 C   0  0  0  0  0  0  0  0  0  0  0  0
   -7.3264    9.8951   -8.0245 C   0  0  0  0  0  0  0  0  0  0  0  0
   -5.9604   10.4805   -7.7353 C   0  0  0  0  0  0  0  0  0  0  0  0
   -4.8075    9.7596   -8.0491 C   0  0  0  0  0  0  0  0  0  0  0  0
   -3.4358   11.5809   -7.2415 C   0  0  0  0  0  0  0  0  0  0  0  0
   -4.5835   12.3061   -6.9225 C   0  0  0  0  0  0  0  0  0  0  0  0
   -3.5481   10.3107   -7.8024 C   0  0  0  0  0  0  0  0  0  0  0  0
   -5.8471   11.7541   -7.1666 C   0  0  0  0  0  0  0  0  0  0  0  0
   -4.4650   13.6954   -6.3241 C   0  0  0  0  0  0  0  0  0  0  0  0
   -1.6558   12.5461  -10.1051 H   0  0  0  0  0  0  0  0  0  0  0  0
   -2.1418   14.8314   -9.9056 H   0  0  0  0  0  0  0  0  0  0  0  0
   -1.3273   14.8503  -11.5065 H   0  0  0  0  0  0  0  0  0  0  0  0
   -3.9292   11.6343  -11.3361 H   0  0  0  0  0  0  0  0  0  0  0  0
   -4.0052   12.5329   -9.7825 H   0  0  0  0  0  0  0  0  0  0  0  0
   -1.6986   11.5246  -12.1863 H   0  0  0  0  0  0  0  0  0  0  0  0
   -3.9654   15.7526  -11.0614 H   0  0  0  0  0  0  0  0  0  0  0  0
   -3.3451   15.2065  -12.6563 H   0  0  0  0  0  0  0  0  0  0  0  0
   -8.1726   10.1006  -13.8930 H   0  0  0  0  0  0  0  0  0  0  0  0
   -6.0607   12.2852   -9.8870 H   0  0  0  0  0  0  0  0  0  0  0  0
   -6.3117   10.0311  -10.7657 H   0  0  0  0  0  0  0  0  0  0  0  0
   -6.6702    9.1804   -9.6379 H   0  0  0  0  0  0  0  0  0  0  0  0
   -8.0906   10.5553   -7.5885 H   0  0  0  0  0  0  0  0  0  0  0  0
   -7.3891    8.9020   -7.5556 H   0  0  0  0  0  0  0  0  0  0  0  0
   -4.8892    8.7741   -8.4833 H   0  0  0  0  0  0  0  0  0  0  0  0
   -2.4600   12.0040   -7.0537 H   0  0  0  0  0  0  0  0  0  0  0  0
   -2.6581    9.7501   -8.0474 H   0  0  0  0  0  0  0  0  0  0  0  0
   -6.7366   12.3128   -6.9153 H   0  0  0  0  0  0  0  0  0  0  0  0
   -4.4364   14.4418   -7.1316 H   0  0  0  0  0  0  0  0  0  0  0  0
   -5.3317   13.8902   -5.6754 H   0  0  0  0  0  0  0  0  0  0  0  0
   -3.5409   13.7615   -5.7311 H   0  0  0  0  0  0  0  0  0  0  0  0
  1  2  1  0  0  0  0
  1  3  1  0  0  0  0
  1  4  1  0  0  0  0
  2  5  1  0  0  0  0
  3  6  1  0  0  0  0
  5  6  1  0  0  0  0
  6 12  1  0  0  0  0
  7  8  1  0  0  0  0
  7 10  2  0  0  0  0
  7 12  1  0  0  0  0
  8  9  1  0  0  0  0
  8 11  2  0  0  0  0
  9 15  2  0  0  0  0
 10 14  1  0  0  0  0
 12 13  2  0  0  0  0
 14 15  1  0  0  0  0
 14 18  1  0  0  0  0
 15 16  1  0  0  0  0
 16 17  2  0  0  0  0
 17 18  1  0  0  0  0
 18 19  1  0  0  0  0
 19 20  1  0  0  0  0
 20 21  2  0  0  0  0
 20 25  1  0  0  0  0
 21 24  1  0  0  0  0
 22 23  1  0  0  0  0
 22 24  2  0  0  0  0
 23 25  2  0  0  0  0
 23 26  1  0  0  0  0
  1 27  1  0  0  0  0
  2 28  1  0  0  0  0
  2 29  1  0  0  0  0
  3 30  1  0  0  0  0
  3 31  1  0  0  0  0
  4 32  1  0  0  0  0
  5 33  1  0  0  0  0
  5 34  1  0  0  0  0
  9 35  1  0  0  0  0
 10 36  1  0  0  0  0
 14 37  1  0  0  0  0
 18 38  1  0  0  0  0
 19 39  1  0  0  0  0
 19 40  1  0  0  0  0
 21 41  1  0  0  0  0
 22 42  1  0  0  0  0
 24 43  1  0  0  0  0
 25 44  1  0  0  0  0
 26 45  1  0  0  0  0
 26 46  1  0  0  0  0
 26 47  1  0  0  0  0
M  END
> <Name>
13

> <IC50[uM]>
0.006

$$$$
13
  -OEChem-05192314333D
 Structure written by MMmdl.
 47 50  0     1  0  0  0  0  0999 V2000
   -2.2088   12.9419  -10.9697 C   0  0  1  0  0  0  0  0  0  0  0  0
   -2.1904   14.4671  -10.9424 C   0  0  0  0  0  0  0  0  0  0  0  0
   -3.6992   12.5876  -10.8377 C   0  0  0  0  0  0  0  0  0  0  0  0
   -1.6826   12.4744  -12.1795 O   0  0  0  0  0  0  0  0  0  0  0  0
   -3.5107   14.9139  -11.6089 C   0  0  0  0  0  0  0  0  0  0  0  0
   -4.3443   13.7200  -11.5243 N   0  0  0  0  0  0  0  0  0  0  0  0
   -6.3525   12.3601  -12.0338 C   0  0  0  0  0  0  0  0  0  0  0  0
   -6.9727   11.7556  -13.1375 C   0  0  0  0  0  0  0  0  0  0  0  0
   -7.7097   10.5633  -13.0339 C   0  0  0  0  0  0  0  0  0  0  0  0
   -6.5001   11.8056  -10.7491 C   0  0  0  0  0  0  0  0  0  0  0  0
   -6.8506   12.3073  -14.3824 O   0  0  0  0  0  0  0  0  0  0  0  0
   -5.5377   13.6382  -12.2001 C   0  0  0  0  0  0  0  0  0  0  0  0
   -5.9500   14.5444  -12.9177 O   0  0  0  0  0  0  0  0  0  0  0  0
   -7.2308   10.6159  -10.6131 C   0  0  0  0  0  0  0  0  0  0  0  0
   -7.8083   10.0113  -11.7524 C   0  0  0  0  0  0  0  0  0  0  0  0
   -8.4200    8.8675  -11.2880 N   0  0  0  0  0  0  0  0  0  0  0  0
   -8.2847    8.7400   -9.9757 N   0  0  0  0  0  0  0  0  0  0  0  0
   -7.6047    9.7473   -9.5145 C   0  0  0  0  0  0  0  0  0  0  0  0
   -7.3264    9.8951   -8.0245 C   0  0  0  0  0  0  0  0  0  0  0  0
   -5.9604   10.4805   -7.7353 C   0  0  0  0  0  0  0  0  0  0  0  0
   -4.8075    9.7596   -8.0491 C   0  0  0  0  0  0  0  0  0  0  0  0
   -3.4358   11.5809   -7.2415 C   0  0  0  0  0  0  0  0  0  0  0  0
   -4.5835   12.3061   -6.9225 C   0  0  0  0  0  0  0  0  0  0  0  0
   -3.5481   10.3107   -7.8024 C   0  0  0  0  0  0  0  0  0  0  0  0
   -5.8471   11.7541   -7.1666 C   0  0  0  0  0  0  0  0  0  0  0  0
   -4.4650   13.6954   -6.3241 C   0  0  0  0  0  0  0  0  0  0  0  0
   -1.6558   12.5461  -10.1051 H   0  0  0  0  0  0  0  0  0  0  0  0
   -2.1418   14.8314   -9.9056 H   0  0  0  0  0  0  0  0  0  0  0  0
   -1.3273   14.8503  -11.5065 H   0  0  0  0  0  0  0  0  0  0  0  0
   -3.9292   11.6343  -11.3361 H   0  0  0  0  0  0  0  0  0  0  0  0
   -4.0052   12.5329   -9.7825 H   0  0  0  0  0  0  0  0  0  0  0  0
   -1.6986   11.5246  -12.1863 H   0  0  0  0  0  0  0  0  0  0  0  0
   -3.9654   15.7526  -11.0614 H   0  0  0  0  0  0  0  0  0  0  0  0
   -3.3451   15.2065  -12.6563 H   0  0  0  0  0  0  0  0  0  0  0  0
   -8.7298   10.7663  -13.3920 H   0  0  0  0  0  0  0  0  0  0  0  0
   -7.2340    9.8162  -13.6862 H   0  0  0  0  0  0  0  0  0  0  0  0
   -6.0607   12.2852   -9.8870 H   0  0  0  0  0  0  0  0  0  0  0  0
   -6.6702    9.1804   -9.6379 H   0  0  0  0  0  0  0  0  0  0  0  0
   -8.0906   10.5553   -7.5885 H   0  0  0  0  0  0  0  0  0  0  0  0
   -7.3891    8.9020   -7.5556 H   0  0  0  0  0  0  0  0  0  0  0  0
   -4.8892    8.7741   -8.4833 H   0  0  0  0  0  0  0  0  0  0  0  0
   -2.4600   12.0040   -7.0537 H   0  0  0  0  0  0  0  0  0  0  0  0
   -2.6581    9.7501   -8.0474 H   0  0  0  0  0  0  0  0  0  0  0  0
   -6.7366   12.3128   -6.9153 H   0  0  0  0  0  0  0  0  0  0  0  0
   -4.4364   14.4418   -7.1316 H   0  0  0  0  0  0  0  0  0  0  0  0
   -5.3317   13.8902   -5.6754 H   0  0  0  0  0  0  0  0  0  0  0  0
   -3.5409   13.7615   -5.7311 H   0  0  0  0  0  0  0  0  0  0  0  0
  1  2  1  0  0  0  0
  1  3  1  0  0  0  0
  1  4  1  0  0  0  0
  2  5  1  0  0  0  0
  3  6  1  0  0  0  0
  5  6  1  0  0  0  0
  6 12  1  0  0  0  0
  7  8  1  0  0  0  0
  7 10  2  0  0  0  0
  7 12  1  0  0  0  0
  8  9  1  0  0  0  0
  8 11  2  0  0  0  0
  9 15  1  0  0  0  0
 10 14  1  0  0  0  0
 12 13  2  0  0  0  0
 14 15  2  0  0  0  0
 14 18  1  0  0  0  0
 15 16  1  0  0  0  0
 16 17  2  0  0  0  0
 17 18  1  0  0  0  0
 18 19  1  0  0  0  0
 19 20  1  0  0  0  0
 20 21  2  0  0  0  0
 20 25  1  0  0  0  0
 21 24  1  0  0  0  0
 22 23  1  0  0  0  0
 22 24  2  0  0  0  0
 23 25  2  0  0  0  0
 23 26  1  0  0  0  0
  1 27  1  0  0  0  0
  2 28  1  0  0  0  0
  2 29  1  0  0  0  0
  3 30  1  0  0  0  0
  3 31  1  0  0  0  0
  4 32  1  0  0  0  0
  5 33  1  0  0  0  0
  5 34  1  0  0  0  0
  9 35  1  0  0  0  0
  9 36  1  0  0  0  0
 10 37  1  0  0  0  0
 18 38  1  0  0  0  0
 19 39  1  0  0  0  0
 19 40  1  0  0  0  0
 21 41  1  0  0  0  0
 22 42  1  0  0  0  0
 24 43  1  0  0  0  0
 25 44  1  0  0  0  0
 26 45  1  0  0  0  0
 26 46  1  0  0  0  0
 26 47  1  0  0  0  0
M  END
> <Name>
13

> <IC50[uM]>
0.006

$$$$
13
  -OEChem-05192314333D
 Structure written by MMmdl.
 47 50  0     1  0  0  0  0  0999 V2000
   -2.2088   12.9419  -10.9697 C   0  0  1  0  0  0  0  0  0  0  0  0
   -2.1904   14.4671  -10.9424 C   0  0  0  0  0  0  0  0  0  0  0  0
   -3.6992   12.5876  -10.8377 C   0  0  0  0  0  0  0  0  0  0  0  0
   -1.6826   12.4744  -12.1795 O   0  0  0  0  0  0  0  0  0  0  0  0
   -3.5107   14.9139  -11.6089 C   0  0  0  0  0  0  0  0  0  0  0  0
   -4.3443   13.7200  -11.5243 N   0  0  0  0  0  0  0  0  0  0  0  0
   -6.3525   12.3601  -12.0338 C   0  0  0  0  0  0  0  0  0  0  0  0
   -6.9727   11.7556  -13.1375 C   0  0  0  0  0  0  0  0  0  0  0  0
   -7.7097   10.5633  -13.0339 C   0  0  0  0  0  0  0  0  0  0  0  0
   -6.5001   11.8056  -10.7491 C   0  0  0  0  0  0  0  0  0  0  0  0
   -6.8506   12.3073  -14.3824 O   0  0  0  0  0  0  0  0  0  0  0  0
   -5.5377   13.6382  -12.2001 C   0  0  0  0  0  0  0  0  0  0  0  0
   -5.9500   14.5444  -12.9177 O   0  0  0  0  0  0  0  0  0  0  0  0
   -7.2308   10.6159  -10.6131 C   0  0  0  0  0  0  0  0  0  0  0  0
   -7.8083   10.0113  -11.7524 C   0  0  0  0  0  0  0  0  0  0  0  0
   -8.4200    8.8675  -11.2880 N   0  0  0  0  0  0  0  0  0  0  0  0
   -8.2847    8.7400   -9.9757 N   0  0  0  0  0  0  0  0  0  0  0  0
   -7.6047    9.7473   -9.5145 C   0  0  0  0  0  0  0  0  0  0  0  0
   -7.3264    9.8951   -8.0245 C   0  0  0  0  0  0  0  0  0  0  0  0
   -5.9604   10.4805   -7.7353 C   0  0  0  0  0  0  0  0  0  0  0  0
   -4.8075    9.7596   -8.0491 C   0  0  0  0  0  0  0  0  0  0  0  0
   -3.4358   11.5809   -7.2415 C   0  0  0  0  0  0  0  0  0  0  0  0
   -4.5835   12.3061   -6.9225 C   0  0  0  0  0  0  0  0  0  0  0  0
   -3.5481   10.3107   -7.8024 C   0  0  0  0  0  0  0  0  0  0  0  0
   -5.8471   11.7541   -7.1666 C   0  0  0  0  0  0  0  0  0  0  0  0
   -4.4650   13.6954   -6.3241 C   0  0  0  0  0  0  0  0  0  0  0  0
   -1.6558   12.5461  -10.1051 H   0  0  0  0  0  0  0  0  0  0  0  0
   -2.1418   14.8314   -9.9056 H   0  0  0  0  0  0  0  0  0  0  0  0
   -1.3273   14.8503  -11.5065 H   0  0  0  0  0  0  0  0  0  0  0  0
   -3.9292   11.6343  -11.3361 H   0  0  0  0  0  0  0  0  0  0  0  0
   -4.0052   12.5329   -9.7825 H   0  0  0  0  0  0  0  0  0  0  0  0
   -1.6986   11.5246  -12.1863 H   0  0  0  0  0  0  0  0  0  0  0  0
   -3.9654   15.7526  -11.0614 H   0  0  0  0  0  0  0  0  0  0  0  0
   -3.3451   15.2065  -12.6563 H   0  0  0  0  0  0  0  0  0  0  0  0
   -8.7298   10.7663  -13.3920 H   0  0  0  0  0  0  0  0  0  0  0  0
   -7.2340    9.8162  -13.6862 H   0  0  0  0  0  0  0  0  0  0  0  0
   -6.0607   12.2852   -9.8870 H   0  0  0  0  0  0  0  0  0  0  0  0
   -6.8802    9.4462  -11.9237 H   0  0  0  0  0  0  0  0  0  0  0  0
   -8.0906   10.5553   -7.5885 H   0  0  0  0  0  0  0  0  0  0  0  0
   -7.3891    8.9020   -7.5556 H   0  0  0  0  0  0  0  0  0  0  0  0
   -4.8892    8.7741   -8.4833 H   0  0  0  0  0  0  0  0  0  0  0  0
   -2.4600   12.0040   -7.0537 H   0  0  0  0  0  0  0  0  0  0  0  0
   -2.6581    9.7501   -8.0474 H   0  0  0  0  0  0  0  0  0  0  0  0
   -6.7366   12.3128   -6.9153 H   0  0  0  0  0  0  0  0  0  0  0  0
   -4.4364   14.4418   -7.1316 H   0  0  0  0  0  0  0  0  0  0  0  0
   -5.3317   13.8902   -5.6754 H   0  0  0  0  0  0  0  0  0  0  0  0
   -3.5409   13.7615   -5.7311 H   0  0  0  0  0  0  0  0  0  0  0  0
  1  2  1  0  0  0  0
  1  3  1  0  0  0  0
  1  4  1  0  0  0  0
  2  5  1  0  0  0  0
  3  6  1  0  0  0  0
  5  6  1  0  0  0  0
  6 12  1  0  0  0  0
  7  8  1  0  0  0  0
  7 10  2  0  0  0  0
  7 12  1  0  0  0  0
  8  9  1  0  0  0  0
  8 11  2  0  0  0  0
  9 15  1  0  0  0  0
 10 14  1  0  0  0  0
 12 13  2  0  0  0  0
 14 15  1  0  0  0  0
 14 18  2  0  0  0  0
 15 16  1  0  0  0  0
 16 17  2  0  0  0  0
 17 18  1  0  0  0  0
 18 19  1  0  0  0  0
 19 20  1  0  0  0  0
 20 21  2  0  0  0  0
 20 25  1  0  0  0  0
 21 24  1  0  0  0  0
 22 23  1  0  0  0  0
 22 24  2  0  0  0  0
 23 25  2  0  0  0  0
 23 26  1  0  0  0  0
  1 27  1  0  0  0  0
  2 28  1  0  0  0  0
  2 29  1  0  0  0  0
  3 30  1  0  0  0  0
  3 31  1  0  0  0  0
  4 32  1  0  0  0  0
  5 33  1  0  0  0  0
  5 34  1  0  0  0  0
  9 35  1  0  0  0  0
  9 36  1  0  0  0  0
 10 37  1  0  0  0  0
 15 38  1  0  0  0  0
 19 39  1  0  0  0  0
 19 40  1  0  0  0  0
 21 41  1  0  0  0  0
 22 42  1  0  0  0  0
 24 43  1  0  0  0  0
 25 44  1  0  0  0  0
 26 45  1  0  0  0  0
 26 46  1  0  0  0  0
 26 47  1  0  0  0  0
M  END
> <Name>
13

> <IC50[uM]>
0.006

$$$$
13
  -OEChem-05192314333D
 Structure written by MMmdl.
 47 50  0     1  0  0  0  0  0999 V2000
   -2.2088   12.9419  -10.9697 C   0  0  1  0  0  0  0  0  0  0  0  0
   -2.1904   14.4671  -10.9424 C   0  0  0  0  0  0  0  0  0  0  0  0
   -3.6992   12.5876  -10.8377 C   0  0  0  0  0  0  0  0  0  0  0  0
   -1.6826   12.4744  -12.1795 O   0  0  0  0  0  0  0  0  0  0  0  0
   -3.5107   14.9139  -11.6089 C   0  0  0  0  0  0  0  0  0  0  0  0
   -4.3443   13.7200  -11.5243 N   0  0  0  0  0  0  0  0  0  0  0  0
   -6.3525   12.3601  -12.0338 C   0  0  0  0  0  0  0  0  0  0  0  0
   -6.9727   11.7556  -13.1375 C   0  0  0  0  0  0  0  0  0  0  0  0
   -7.7097   10.5633  -13.0339 C   0  0  0  0  0  0  0  0  0  0  0  0
   -6.5001   11.8056  -10.7491 C   0  0  0  0  0  0  0  0  0  0  0  0
   -6.8506   12.3073  -14.3824 O   0  0  0  0  0  0  0  0  0  0  0  0
   -5.5377   13.6382  -12.2001 C   0  0  0  0  0  0  0  0  0  0  0  0
   -5.9500   14.5444  -12.9177 O   0  0  0  0  0  0  0  0  0  0  0  0
   -7.2308   10.6159  -10.6131 C   0  0  0  0  0  0  0  0  0  0  0  0
   -7.8083   10.0113  -11.7524 C   0  0  0  0  0  0  0  0  0  0  0  0
   -8.4200    8.8675  -11.2880 N   0  0  0  0  0  0  0  0  0  0  0  0
   -8.2847    8.7400   -9.9757 N   0  0  0  0  0  0  0  0  0  0  0  0
   -7.6047    9.7473   -9.5145 C   0  0  0  0  0  0  0  0  0  0  0  0
   -7.3264    9.8951   -8.0245 C   0  0  0  0  0  0  0  0  0  0  0  0
   -5.9604   10.4805   -7.7353 C   0  0  0  0  0  0  0  0  0  0  0  0
   -4.8075    9.7596   -8.0491 C   0  0  0  0  0  0  0  0  0  0  0  0
   -3.4358   11.5809   -7.2415 C   0  0  0  0  0  0  0  0  0  0  0  0
   -4.5835   12.3061   -6.9225 C   0  0  0  0  0  0  0  0  0  0  0  0
   -3.5481   10.3107   -7.8024 C   0  0  0  0  0  0  0  0  0  0  0  0
   -5.8471   11.7541   -7.1666 C   0  0  0  0  0  0  0  0  0  0  0  0
   -4.4650   13.6954   -6.3241 C   0  0  0  0  0  0  0  0  0  0  0  0
   -1.6558   12.5461  -10.1051 H   0  0  0  0  0  0  0  0  0  0  0  0
   -2.1418   14.8314   -9.9056 H   0  0  0  0  0  0  0  0  0  0  0  0
   -1.3273   14.8503  -11.5065 H   0  0  0  0  0  0  0  0  0  0  0  0
   -3.9292   11.6343  -11.3361 H   0  0  0  0  0  0  0  0  0  0  0  0
   -4.0052   12.5329   -9.7825 H   0  0  0  0  0  0  0  0  0  0  0  0
   -1.6986   11.5246  -12.1863 H   0  0  0  0  0  0  0  0  0  0  0  0
   -3.9654   15.7526  -11.0614 H   0  0  0  0  0  0  0  0  0  0  0  0
   -3.3451   15.2065  -12.6563 H   0  0  0  0  0  0  0  0  0  0  0  0
   -5.4494   11.7544  -12.1998 H   0  0  0  0  0  0  0  0  0  0  0  0
   -8.1726   10.1006  -13.8930 H   0  0  0  0  0  0  0  0  0  0  0  0
   -5.4892   11.6119  -10.3610 H   0  0  0  0  0  0  0  0  0  0  0  0
   -6.9942   12.5634  -10.1232 H   0  0  0  0  0  0  0  0  0  0  0  0
   -8.0906   10.5553   -7.5885 H   0  0  0  0  0  0  0  0  0  0  0  0
   -7.3891    8.9020   -7.5556 H   0  0  0  0  0  0  0  0  0  0  0  0
   -4.8892    8.7741   -8.4833 H   0  0  0  0  0  0  0  0  0  0  0  0
   -2.4600   12.0040   -7.0537 H   0  0  0  0  0  0  0  0  0  0  0  0
   -2.6581    9.7501   -8.0474 H   0  0  0  0  0  0  0  0  0  0  0  0
   -6.7366   12.3128   -6.9153 H   0  0  0  0  0  0  0  0  0  0  0  0
   -4.4364   14.4418   -7.1316 H   0  0  0  0  0  0  0  0  0  0  0  0
   -5.3317   13.8902   -5.6754 H   0  0  0  0  0  0  0  0  0  0  0  0
   -3.5409   13.7615   -5.7311 H   0  0  0  0  0  0  0  0  0  0  0  0
  1  2  1  0  0  0  0
  1  3  1  0  0  0  0
  1  4  1  0  0  0  0
  2  5  1  0  0  0  0
  3  6  1  0  0  0  0
  5  6  1  0  0  0  0
  6 12  1  0  0  0  0
  7  8  1  0  0  0  0
  7 10  1  0  0  0  0
  7 12  1  0  0  0  0
  8  9  1  0  0  0  0
  8 11  2  0  0  0  0
  9 15  2  0  0  0  0
 10 14  1  0  0  0  0
 12 13  2  0  0  0  0
 14 15  1  0  0  0  0
 14 18  2  0  0  0  0
 15 16  1  0  0  0  0
 16 17  2  0  0  0  0
 17 18  1  0  0  0  0
 18 19  1  0  0  0  0
 19 20  1  0  0  0  0
 20 21  2  0  0  0  0
 20 25  1  0  0  0  0
 21 24  1  0  0  0  0
 22 23  1  0  0  0  0
 22 24  2  0  0  0  0
 23 25  2  0  0  0  0
 23 26  1  0  0  0  0
  1 27  1  0  0  0  0
  2 28  1  0  0  0  0
  2 29  1  0  0  0  0
  3 30  1  0  0  0  0
  3 31  1  0  0  0  0
  4 32  1  0  0  0  0
  5 33  1  0  0  0  0
  5 34  1  0  0  0  0
  7 35  1  0  0  0  0
  9 36  1  0  0  0  0
 10 37  1  0  0  0  0
 10 38  1  0  0  0  0
 19 39  1  0  0  0  0
 19 40  1  0  0  0  0
 21 41  1  0  0  0  0
 22 42  1  0  0  0  0
 24 43  1  0  0  0  0
 25 44  1  0  0  0  0
 26 45  1  0  0  0  0
 26 46  1  0  0  0  0
 26 47  1  0  0  0  0
M  END
> <Name>
13

> <IC50[uM]>
0.006

$$$$
13
  -OEChem-05192314333D
 Structure written by MMmdl.
 47 50  0     1  0  0  0  0  0999 V2000
   -2.2088   12.9419  -10.9697 C   0  0  1  0  0  0  0  0  0  0  0  0
   -2.1904   14.4671  -10.9424 C   0  0  0  0  0  0  0  0  0  0  0  0
   -3.6992   12.5876  -10.8377 C   0  0  0  0  0  0  0  0  0  0  0  0
   -1.6826   12.4744  -12.1795 O   0  0  0  0  0  0  0  0  0  0  0  0
   -3.5107   14.9139  -11.6089 C   0  0  0  0  0  0  0  0  0  0  0  0
   -4.3443   13.7200  -11.5243 N   0  0  0  0  0  0  0  0  0  0  0  0
   -6.3525   12.3601  -12.0338 C   0  0  0  0  0  0  0  0  0  0  0  0
   -6.9727   11.7556  -13.1375 C   0  0  0  0  0  0  0  0  0  0  0  0
   -7.7097   10.5633  -13.0339 C   0  0  0  0  0  0  0  0  0  0  0  0
   -6.5001   11.8056  -10.7491 C   0  0  0  0  0  0  0  0  0  0  0  0
   -6.8506   12.3073  -14.3824 O   0  0  0  0  0  0  0  0  0  0  0  0
   -5.5377   13.6382  -12.2001 C   0  0  0  0  0  0  0  0  0  0  0  0
   -5.9500   14.5444  -12.9177 O   0  0  0  0  0  0  0  0  0  0  0  0
   -7.2308   10.6159  -10.6131 C   0  0  0  0  0  0  0  0  0  0  0  0
   -7.8083   10.0113  -11.7524 C   0  0  0  0  0  0  0  0  0  0  0  0
   -8.4200    8.8675  -11.2880 N   0  0  0  0  0  0  0  0  0  0  0  0
   -8.2847    8.7400   -9.9757 N   0  0  0  0  0  0  0  0  0  0  0  0
   -7.6047    9.7473   -9.5145 C   0  0  0  0  0  0  0  0  0  0  0  0
   -7.3264    9.8951   -8.0245 C   0  0  0  0  0  0  0  0  0  0  0  0
   -5.9604   10.4805   -7.7353 C   0  0  0  0  0  0  0  0  0  0  0  0
   -4.8075    9.7596   -8.0491 C   0  0  0  0  0  0  0  0  0  0  0  0
   -3.4358   11.5809   -7.2415 C   0  0  0  0  0  0  0  0  0  0  0  0
   -4.5835   12.3061   -6.9225 C   0  0  0  0  0  0  0  0  0  0  0  0
   -3.5481   10.3107   -7.8024 C   0  0  0  0  0  0  0  0  0  0  0  0
   -5.8471   11.7541   -7.1666 C   0  0  0  0  0  0  0  0  0  0  0  0
   -4.4650   13.6954   -6.3241 C   0  0  0  0  0  0  0  0  0  0  0  0
   -1.6558   12.5461  -10.1051 H   0  0  0  0  0  0  0  0  0  0  0  0
   -2.1418   14.8314   -9.9056 H   0  0  0  0  0  0  0  0  0  0  0  0
   -1.3273   14.8503  -11.5065 H   0  0  0  0  0  0  0  0  0  0  0  0
   -3.9292   11.6343  -11.3361 H   0  0  0  0  0  0  0  0  0  0  0  0
   -4.0052   12.5329   -9.7825 H   0  0  0  0  0  0  0  0  0  0  0  0
   -1.6986   11.5246  -12.1863 H   0  0  0  0  0  0  0  0  0  0  0  0
   -3.9654   15.7526  -11.0614 H   0  0  0  0  0  0  0  0  0  0  0  0
   -3.3451   15.2065  -12.6563 H   0  0  0  0  0  0  0  0  0  0  0  0
   -8.7298   10.7663  -13.3920 H   0  0  0  0  0  0  0  0  0  0  0  0
   -7.2340    9.8162  -13.6862 H   0  0  0  0  0  0  0  0  0  0  0  0
   -6.0607   12.2852   -9.8870 H   0  0  0  0  0  0  0  0  0  0  0  0
   -6.3117   10.0311  -10.7657 H   0  0  0  0  0  0  0  0  0  0  0  0
   -8.6485    7.9874   -9.4268 H   0  0  0  0  0  0  0  0  0  0  0  0
   -8.0295    9.6121   -7.2551 H   0  0  0  0  0  0  0  0  0  0  0  0
   -4.8892    8.7741   -8.4833 H   0  0  0  0  0  0  0  0  0  0  0  0
   -2.4600   12.0040   -7.0537 H   0  0  0  0  0  0  0  0  0  0  0  0
   -2.6581    9.7501   -8.0474 H   0  0  0  0  0  0  0  0  0  0  0  0
   -6.7366   12.3128   -6.9153 H   0  0  0  0  0  0  0  0  0  0  0  0
   -4.4364   14.4418   -7.1316 H   0  0  0  0  0  0  0  0  0  0  0  0
   -5.3317   13.8902   -5.6754 H   0  0  0  0  0  0  0  0  0  0  0  0
   -3.5409   13.7615   -5.7311 H   0  0  0  0  0  0  0  0  0  0  0  0
  1  2  1  0  0  0  0
  1  3  1  0  0  0  0
  1  4  1  0  0  0  0
  2  5  1  0  0  0  0
  3  6  1  0  0  0  0
  5  6  1  0  0  0  0
  6 12  1  0  0  0  0
  7  8  1  0  0  0  0
  7 10  2  0  0  0  0
  7 12  1  0  0  0  0
  8  9  1  0  0  0  0
  8 11  2  0  0  0  0
  9 15  1  0  0  0  0
 10 14  1  0  0  0  0
 12 13  2  0  0  0  0
 14 15  1  0  0  0  0
 14 18  1  0  0  0  0
 15 16  2  0  0  0  0
 16 17  1  0  0  0  0
 17 18  1  0  0  0  0
 18 19  2  0  0  0  0
 19 20  1  0  0  0  0
 20 21  2  0  0  0  0
 20 25  1  0  0  0  0
 21 24  1  0  0  0  0
 22 23  1  0  0  0  0
 22 24  2  0  0  0  0
 23 25  2  0  0  0  0
 23 26  1  0  0  0  0
  1 27  1  0  0  0  0
  2 28  1  0  0  0  0
  2 29  1  0  0  0  0
  3 30  1  0  0  0  0
  3 31  1  0  0  0  0
  4 32  1  0  0  0  0
  5 33  1  0  0  0  0
  5 34  1  0  0  0  0
  9 35  1  0  0  0  0
  9 36  1  0  0  0  0
 10 37  1  0  0  0  0
 14 38  1  0  0  0  0
 17 39  1  0  0  0  0
 19 40  1  0  0  0  0
 21 41  1  0  0  0  0
 22 42  1  0  0  0  0
 24 43  1  0  0  0  0
 25 44  1  0  0  0  0
 26 45  1  0  0  0  0
 26 46  1  0  0  0  0
 26 47  1  0  0  0  0
M  END
> <Name>
13

> <IC50[uM]>
0.006

$$$$
13
  -OEChem-05192314333D
 Structure written by MMmdl.
 47 50  0     1  0  0  0  0  0999 V2000
   -2.2088   12.9419  -10.9697 C   0  0  1  0  0  0  0  0  0  0  0  0
   -2.1904   14.4671  -10.9424 C   0  0  0  0  0  0  0  0  0  0  0  0
   -3.6992   12.5876  -10.8377 C   0  0  0  0  0  0  0  0  0  0  0  0
   -1.6826   12.4744  -12.1795 O   0  0  0  0  0  0  0  0  0  0  0  0
   -3.5107   14.9139  -11.6089 C   0  0  0  0  0  0  0  0  0  0  0  0
   -4.3443   13.7200  -11.5243 N   0  0  0  0  0  0  0  0  0  0  0  0
   -6.3525   12.3601  -12.0338 C   0  0  0  0  0  0  0  0  0  0  0  0
   -6.9727   11.7556  -13.1375 C   0  0  0  0  0  0  0  0  0  0  0  0
   -7.7097   10.5633  -13.0339 C   0  0  0  0  0  0  0  0  0  0  0  0
   -6.5001   11.8056  -10.7491 C   0  0  0  0  0  0  0  0  0  0  0  0
   -6.8506   12.3073  -14.3824 O   0  0  0  0  0  0  0  0  0  0  0  0
   -5.5377   13.6382  -12.2001 C   0  0  0  0  0  0  0  0  0  0  0  0
   -5.9500   14.5444  -12.9177 O   0  0  0  0  0  0  0  0  0  0  0  0
   -7.2308   10.6159  -10.6131 C   0  0  0  0  0  0  0  0  0  0  0  0
   -7.8083   10.0113  -11.7524 C   0  0  0  0  0  0  0  0  0  0  0  0
   -8.4200    8.8675  -11.2880 N   0  0  0  0  0  0  0  0  0  0  0  0
   -8.2847    8.7400   -9.9757 N   0  0  0  0  0  0  0  0  0  0  0  0
   -7.6047    9.7473   -9.5145 C   0  0  0  0  0  0  0  0  0  0  0  0
   -7.3264    9.8951   -8.0245 C   0  0  0  0  0  0  0  0  0  0  0  0
   -5.9604   10.4805   -7.7353 C   0  0  0  0  0  0  0  0  0  0  0  0
   -4.8075    9.7596   -8.0491 C   0  0  0  0  0  0  0  0  0  0  0  0
   -3.4358   11.5809   -7.2415 C   0  0  0  0  0  0  0  0  0  0  0  0
   -4.5835   12.3061   -6.9225 C   0  0  0  0  0  0  0  0  0  0  0  0
   -3.5481   10.3107   -7.8024 C   0  0  0  0  0  0  0  0  0  0  0  0
   -5.8471   11.7541   -7.1666 C   0  0  0  0  0  0  0  0  0  0  0  0
   -4.4650   13.6954   -6.3241 C   0  0  0  0  0  0  0  0  0  0  0  0
   -1.6558   12.5461  -10.1051 H   0  0  0  0  0  0  0  0  0  0  0  0
   -2.1418   14.8314   -9.9056 H   0  0  0  0  0  0  0  0  0  0  0  0
   -1.3273   14.8503  -11.5065 H   0  0  0  0  0  0  0  0  0  0  0  0
   -3.9292   11.6343  -11.3361 H   0  0  0  0  0  0  0  0  0  0  0  0
   -4.0052   12.5329   -9.7825 H   0  0  0  0  0  0  0  0  0  0  0  0
   -1.6986   11.5246  -12.1863 H   0  0  0  0  0  0  0  0  0  0  0  0
   -3.9654   15.7526  -11.0614 H   0  0  0  0  0  0  0  0  0  0  0  0
   -3.3451   15.2065  -12.6563 H   0  0  0  0  0  0  0  0  0  0  0  0
   -8.1726   10.1006  -13.8930 H   0  0  0  0  0  0  0  0  0  0  0  0
   -6.0607   12.2852   -9.8870 H   0  0  0  0  0  0  0  0  0  0  0  0
   -6.3117   10.0311  -10.7657 H   0  0  0  0  0  0  0  0  0  0  0  0
   -8.9058    8.2145  -11.8690 H   0  0  0  0  0  0  0  0  0  0  0  0
   -8.0906   10.5553   -7.5885 H   0  0  0  0  0  0  0  0  0  0  0  0
   -7.3891    8.9020   -7.5556 H   0  0  0  0  0  0  0  0  0  0  0  0
   -4.8892    8.7741   -8.4833 H   0  0  0  0  0  0  0  0  0  0  0  0
   -2.4600   12.0040   -7.0537 H   0  0  0  0  0  0  0  0  0  0  0  0
   -2.6581    9.7501   -8.0474 H   0  0  0  0  0  0  0  0  0  0  0  0
   -6.7366   12.3128   -6.9153 H   0  0  0  0  0  0  0  0  0  0  0  0
   -4.4364   14.4418   -7.1316 H   0  0  0  0  0  0  0  0  0  0  0  0
   -5.3317   13.8902   -5.6754 H   0  0  0  0  0  0  0  0  0  0  0  0
   -3.5409   13.7615   -5.7311 H   0  0  0  0  0  0  0  0  0  0  0  0
  1  2  1  0  0  0  0
  1  3  1  0  0  0  0
  1  4  1  0  0  0  0
  2  5  1  0  0  0  0
  3  6  1  0  0  0  0
  5  6  1  0  0  0  0
  6 12  1  0  0  0  0
  7  8  1  0  0  0  0
  7 10  2  0  0  0  0
  7 12  1  0  0  0  0
  8  9  1  0  0  0  0
  8 11  2  0  0  0  0
  9 15  2  0  0  0  0
 10 14  1  0  0  0  0
 12 13  2  0  0  0  0
 14 15  1  0  0  0  0
 14 18  1  0  0  0  0
 15 16  1  0  0  0  0
 16 17  1  0  0  0  0
 17 18  2  0  0  0  0
 18 19  1  0  0  0  0
 19 20  1  0  0  0  0
 20 21  2  0  0  0  0
 20 25  1  0  0  0  0
 21 24  1  0  0  0  0
 22 23  1  0  0  0  0
 22 24  2  0  0  0  0
 23 25  2  0  0  0  0
 23 26  1  0  0  0  0
  1 27  1  0  0  0  0
  2 28  1  0  0  0  0
  2 29  1  0  0  0  0
  3 30  1  0  0  0  0
  3 31  1  0  0  0  0
  4 32  1  0  0  0  0
  5 33  1  0  0  0  0
  5 34  1  0  0  0  0
  9 35  1  0  0  0  0
 10 36  1  0  0  0  0
 14 37  1  0  0  0  0
 16 38  1  0  0  0  0
 19 39  1  0  0  0  0
 19 40  1  0  0  0  0
 21 41  1  0  0  0  0
 22 42  1  0  0  0  0
 24 43  1  0  0  0  0
 25 44  1  0  0  0  0
 26 45  1  0  0  0  0
 26 46  1  0  0  0  0
 26 47  1  0  0  0  0
M  END
> <Name>
13

> <IC50[uM]>
0.006

$$$$
13
  -OEChem-05192314333D
 Structure written by MMmdl.
 47 50  0     1  0  0  0  0  0999 V2000
   -2.2088   12.9419  -10.9697 C   0  0  1  0  0  0  0  0  0  0  0  0
   -2.1904   14.4671  -10.9424 C   0  0  0  0  0  0  0  0  0  0  0  0
   -3.6992   12.5876  -10.8377 C   0  0  0  0  0  0  0  0  0  0  0  0
   -1.6826   12.4744  -12.1795 O   0  0  0  0  0  0  0  0  0  0  0  0
   -3.5107   14.9139  -11.6089 C   0  0  0  0  0  0  0  0  0  0  0  0
   -4.3443   13.7200  -11.5243 N   0  0  0  0  0  0  0  0  0  0  0  0
   -6.3525   12.3601  -12.0338 C   0  0  0  0  0  0  0  0  0  0  0  0
   -6.9727   11.7556  -13.1375 C   0  0  0  0  0  0  0  0  0  0  0  0
   -7.7097   10.5633  -13.0339 C   0  0  0  0  0  0  0  0  0  0  0  0
   -6.5001   11.8056  -10.7491 C   0  0  0  0  0  0  0  0  0  0  0  0
   -6.8506   12.3073  -14.3824 O   0  0  0  0  0  0  0  0  0  0  0  0
   -5.5377   13.6382  -12.2001 C   0  0  0  0  0  0  0  0  0  0  0  0
   -5.9500   14.5444  -12.9177 O   0  0  0  0  0  0  0  0  0  0  0  0
   -7.2308   10.6159  -10.6131 C   0  0  0  0  0  0  0  0  0  0  0  0
   -7.8083   10.0113  -11.7524 C   0  0  0  0  0  0  0  0  0  0  0  0
   -8.4200    8.8675  -11.2880 N   0  0  0  0  0  0  0  0  0  0  0  0
   -8.2847    8.7400   -9.9757 N   0  0  0  0  0  0  0  0  0  0  0  0
   -7.6047    9.7473   -9.5145 C   0  0  0  0  0  0  0  0  0  0  0  0
   -7.3264    9.8951   -8.0245 C   0  0  0  0  0  0  0  0  0  0  0  0
   -5.9604   10.4805   -7.7353 C   0  0  0  0  0  0  0  0  0  0  0  0
   -4.8075    9.7596   -8.0491 C   0  0  0  0  0  0  0  0  0  0  0  0
   -3.4358   11.5809   -7.2415 C   0  0  0  0  0  0  0  0  0  0  0  0
   -4.5835   12.3061   -6.9225 C   0  0  0  0  0  0  0  0  0  0  0  0
   -3.5481   10.3107   -7.8024 C   0  0  0  0  0  0  0  0  0  0  0  0
   -5.8471   11.7541   -7.1666 C   0  0  0  0  0  0  0  0  0  0  0  0
   -4.4650   13.6954   -6.3241 C   0  0  0  0  0  0  0  0  0  0  0  0
   -1.6558   12.5461  -10.1051 H   0  0  0  0  0  0  0  0  0  0  0  0
   -2.1418   14.8314   -9.9056 H   0  0  0  0  0  0  0  0  0  0  0  0
   -1.3273   14.8503  -11.5065 H   0  0  0  0  0  0  0  0  0  0  0  0
   -3.9292   11.6343  -11.3361 H   0  0  0  0  0  0  0  0  0  0  0  0
   -4.0052   12.5329   -9.7825 H   0  0  0  0  0  0  0  0  0  0  0  0
   -1.6986   11.5246  -12.1863 H   0  0  0  0  0  0  0  0  0  0  0  0
   -3.9654   15.7526  -11.0614 H   0  0  0  0  0  0  0  0  0  0  0  0
   -3.3451   15.2065  -12.6563 H   0  0  0  0  0  0  0  0  0  0  0  0
   -5.4494   11.7544  -12.1998 H   0  0  0  0  0  0  0  0  0  0  0  0
   -8.1726   10.1006  -13.8930 H   0  0  0  0  0  0  0  0  0  0  0  0
   -6.0607   12.2852   -9.8870 H   0  0  0  0  0  0  0  0  0  0  0  0
   -6.5242   13.1961  -14.3048 H   0  0  0  0  0  0  0  0  0  0  0  0
   -8.0906   10.5553   -7.5885 H   0  0  0  0  0  0  0  0  0  0  0  0
   -7.3891    8.9020   -7.5556 H   0  0  0  0  0  0  0  0  0  0  0  0
   -4.8892    8.7741   -8.4833 H   0  0  0  0  0  0  0  0  0  0  0  0
   -2.4600   12.0040   -7.0537 H   0  0  0  0  0  0  0  0  0  0  0  0
   -2.6581    9.7501   -8.0474 H   0  0  0  0  0  0  0  0  0  0  0  0
   -6.7366   12.3128   -6.9153 H   0  0  0  0  0  0  0  0  0  0  0  0
   -4.4364   14.4418   -7.1316 H   0  0  0  0  0  0  0  0  0  0  0  0
   -5.3317   13.8902   -5.6754 H   0  0  0  0  0  0  0  0  0  0  0  0
   -3.5409   13.7615   -5.7311 H   0  0  0  0  0  0  0  0  0  0  0  0
  1  2  1  0  0  0  0
  1  3  1  0  0  0  0
  1  4  1  0  0  0  0
  2  5  1  0  0  0  0
  3  6  1  0  0  0  0
  5  6  1  0  0  0  0
  6 12  1  0  0  0  0
  7  8  1  0  0  0  0
  7 10  1  0  0  0  0
  7 12  1  0  0  0  0
  8  9  2  0  0  0  0
  8 11  1  0  0  0  0
  9 15  1  0  0  0  0
 10 14  2  0  0  0  0
 12 13  2  0  0  0  0
 14 15  1  0  0  0  0
 14 18  1  0  0  0  0
 15 16  2  0  0  0  0
 16 17  1  0  0  0  0
 17 18  2  0  0  0  0
 18 19  1  0  0  0  0
 19 20  1  0  0  0  0
 20 21  2  0  0  0  0
 20 25  1  0  0  0  0
 21 24  1  0  0  0  0
 22 23  1  0  0  0  0
 22 24  2  0  0  0  0
 23 25  2  0  0  0  0
 23 26  1  0  0  0  0
  1 27  1  0  0  0  0
  2 28  1  0  0  0  0
  2 29  1  0  0  0  0
  3 30  1  0  0  0  0
  3 31  1  0  0  0  0
  4 32  1  0  0  0  0
  5 33  1  0  0  0  0
  5 34  1  0  0  0  0
  7 35  1  0  0  0  0
  9 36  1  0  0  0  0
 10 37  1  0  0  0  0
 11 38  1  0  0  0  0
 19 39  1  0  0  0  0
 19 40  1  0  0  0  0
 21 41  1  0  0  0  0
 22 42  1  0  0  0  0
 24 43  1  0  0  0  0
 25 44  1  0  0  0  0
 26 45  1  0  0  0  0
 26 46  1  0  0  0  0
 26 47  1  0  0  0  0
M  END
> <Name>
13

> <IC50[uM]>
0.006

$$$$
13
  -OEChem-05192314333D
 Structure written by MMmdl.
 47 50  0     1  0  0  0  0  0999 V2000
   -2.2088   12.9419  -10.9697 C   0  0  1  0  0  0  0  0  0  0  0  0
   -2.1904   14.4671  -10.9424 C   0  0  0  0  0  0  0  0  0  0  0  0
   -3.6992   12.5876  -10.8377 C   0  0  0  0  0  0  0  0  0  0  0  0
   -1.6826   12.4744  -12.1795 O   0  0  0  0  0  0  0  0  0  0  0  0
   -3.5107   14.9139  -11.6089 C   0  0  0  0  0  0  0  0  0  0  0  0
   -4.3443   13.7200  -11.5243 N   0  0  0  0  0  0  0  0  0  0  0  0
   -6.3525   12.3601  -12.0338 C   0  0  0  0  0  0  0  0  0  0  0  0
   -6.9727   11.7556  -13.1375 C   0  0  0  0  0  0  0  0  0  0  0  0
   -7.7097   10.5633  -13.0339 C   0  0  0  0  0  0  0  0  0  0  0  0
   -6.5001   11.8056  -10.7491 C   0  0  0  0  0  0  0  0  0  0  0  0
   -6.8506   12.3073  -14.3824 O   0  0  0  0  0  0  0  0  0  0  0  0
   -5.5377   13.6382  -12.2001 C   0  0  0  0  0  0  0  0  0  0  0  0
   -5.9500   14.5444  -12.9177 O   0  0  0  0  0  0  0  0  0  0  0  0
   -7.2308   10.6159  -10.6131 C   0  0  0  0  0  0  0  0  0  0  0  0
   -7.8083   10.0113  -11.7524 C   0  0  0  0  0  0  0  0  0  0  0  0
   -8.4200    8.8675  -11.2880 N   0  0  0  0  0  0  0  0  0  0  0  0
   -8.2847    8.7400   -9.9757 N   0  0  0  0  0  0  0  0  0  0  0  0
   -7.6047    9.7473   -9.5145 C   0  0  0  0  0  0  0  0  0  0  0  0
   -7.3264    9.8951   -8.0245 C   0  0  0  0  0  0  0  0  0  0  0  0
   -5.9604   10.4805   -7.7353 C   0  0  0  0  0  0  0  0  0  0  0  0
   -4.8075    9.7596   -8.0491 C   0  0  0  0  0  0  0  0  0  0  0  0
   -3.4358   11.5809   -7.2415 C   0  0  0  0  0  0  0  0  0  0  0  0
   -4.5835   12.3061   -6.9225 C   0  0  0  0  0  0  0  0  0  0  0  0
   -3.5481   10.3107   -7.8024 C   0  0  0  0  0  0  0  0  0  0  0  0
   -5.8471   11.7541   -7.1666 C   0  0  0  0  0  0  0  0  0  0  0  0
   -4.4650   13.6954   -6.3241 C   0  0  0  0  0  0  0  0  0  0  0  0
   -1.6558   12.5461  -10.1051 H   0  0  0  0  0  0  0  0  0  0  0  0
   -2.1418   14.8314   -9.9056 H   0  0  0  0  0  0  0  0  0  0  0  0
   -1.3273   14.8503  -11.5065 H   0  0  0  0  0  0  0  0  0  0  0  0
   -3.9292   11.6343  -11.3361 H   0  0  0  0  0  0  0  0  0  0  0  0
   -4.0052   12.5329   -9.7825 H   0  0  0  0  0  0  0  0  0  0  0  0
   -1.6986   11.5246  -12.1863 H   0  0  0  0  0  0  0  0  0  0  0  0
   -3.9654   15.7526  -11.0614 H   0  0  0  0  0  0  0  0  0  0  0  0
   -3.3451   15.2065  -12.6563 H   0  0  0  0  0  0  0  0  0  0  0  0
   -8.1726   10.1006  -13.8930 H   0  0  0  0  0  0  0  0  0  0  0  0
   -6.0607   12.2852   -9.8870 H   0  0  0  0  0  0  0  0  0  0  0  0
   -6.5242   13.1961  -14.3048 H   0  0  0  0  0  0  0  0  0  0  0  0
   -6.3117   10.0311  -10.7657 H   0  0  0  0  0  0  0  0  0  0  0  0
   -8.0906   10.5553   -7.5885 H   0  0  0  0  0  0  0  0  0  0  0  0
   -7.3891    8.9020   -7.5556 H   0  0  0  0  0  0  0  0  0  0  0  0
   -4.8892    8.7741   -8.4833 H   0  0  0  0  0  0  0  0  0  0  0  0
   -2.4600   12.0040   -7.0537 H   0  0  0  0  0  0  0  0  0  0  0  0
   -2.6581    9.7501   -8.0474 H   0  0  0  0  0  0  0  0  0  0  0  0
   -6.7366   12.3128   -6.9153 H   0  0  0  0  0  0  0  0  0  0  0  0
   -4.4364   14.4418   -7.1316 H   0  0  0  0  0  0  0  0  0  0  0  0
   -5.3317   13.8902   -5.6754 H   0  0  0  0  0  0  0  0  0  0  0  0
   -3.5409   13.7615   -5.7311 H   0  0  0  0  0  0  0  0  0  0  0  0
  1  2  1  0  0  0  0
  1  3  1  0  0  0  0
  1  4  1  0  0  0  0
  2  5  1  0  0  0  0
  3  6  1  0  0  0  0
  5  6  1  0  0  0  0
  6 12  1  0  0  0  0
  7  8  1  0  0  0  0
  7 10  2  0  0  0  0
  7 12  1  0  0  0  0
  8  9  2  0  0  0  0
  8 11  1  0  0  0  0
  9 15  1  0  0  0  0
 10 14  1  0  0  0  0
 12 13  2  0  0  0  0
 14 15  1  0  0  0  0
 14 18  1  0  0  0  0
 15 16  2  0  0  0  0
 16 17  1  0  0  0  0
 17 18  2  0  0  0  0
 18 19  1  0  0  0  0
 19 20  1  0  0  0  0
 20 21  2  0  0  0  0
 20 25  1  0  0  0  0
 21 24  1  0  0  0  0
 22 23  1  0  0  0  0
 22 24  2  0  0  0  0
 23 25  2  0  0  0  0
 23 26  1  0  0  0  0
  1 27  1  0  0  0  0
  2 28  1  0  0  0  0
  2 29  1  0  0  0  0
  3 30  1  0  0  0  0
  3 31  1  0  0  0  0
  4 32  1  0  0  0  0
  5 33  1  0  0  0  0
  5 34  1  0  0  0  0
  9 35  1  0  0  0  0
 10 36  1  0  0  0  0
 11 37  1  0  0  0  0
 14 38  1  0  0  0  0
 19 39  1  0  0  0  0
 19 40  1  0  0  0  0
 21 41  1  0  0  0  0
 22 42  1  0  0  0  0
 24 43  1  0  0  0  0
 25 44  1  0  0  0  0
 26 45  1  0  0  0  0
 26 46  1  0  0  0  0
 26 47  1  0  0  0  0
M  END
> <Name>
13

> <IC50[uM]>
0.006

$$$$
13
  -OEChem-05192314333D
 Structure written by MMmdl.
 47 50  0     1  0  0  0  0  0999 V2000
   -2.2088   12.9419  -10.9697 C   0  0  1  0  0  0  0  0  0  0  0  0
   -2.1904   14.4671  -10.9424 C   0  0  0  0  0  0  0  0  0  0  0  0
   -3.6992   12.5876  -10.8377 C   0  0  0  0  0  0  0  0  0  0  0  0
   -1.6826   12.4744  -12.1795 O   0  0  0  0  0  0  0  0  0  0  0  0
   -3.5107   14.9139  -11.6089 C   0  0  0  0  0  0  0  0  0  0  0  0
   -4.3443   13.7200  -11.5243 N   0  0  0  0  0  0  0  0  0  0  0  0
   -6.3525   12.3601  -12.0338 C   0  0  0  0  0  0  0  0  0  0  0  0
   -6.9727   11.7556  -13.1375 C   0  0  0  0  0  0  0  0  0  0  0  0
   -7.7097   10.5633  -13.0339 C   0  0  0  0  0  0  0  0  0  0  0  0
   -6.5001   11.8056  -10.7491 C   0  0  0  0  0  0  0  0  0  0  0  0
   -6.8506   12.3073  -14.3824 O   0  0  0  0  0  0  0  0  0  0  0  0
   -5.5377   13.6382  -12.2001 C   0  0  0  0  0  0  0  0  0  0  0  0
   -5.9500   14.5444  -12.9177 O   0  0  0  0  0  0  0  0  0  0  0  0
   -7.2308   10.6159  -10.6131 C   0  0  0  0  0  0  0  0  0  0  0  0
   -7.8083   10.0113  -11.7524 C   0  0  0  0  0  0  0  0  0  0  0  0
   -8.4200    8.8675  -11.2880 N   0  0  0  0  0  0  0  0  0  0  0  0
   -8.2847    8.7400   -9.9757 N   0  0  0  0  0  0  0  0  0  0  0  0
   -7.6047    9.7473   -9.5145 C   0  0  0  0  0  0  0  0  0  0  0  0
   -7.3264    9.8951   -8.0245 C   0  0  0  0  0  0  0  0  0  0  0  0
   -5.9604   10.4805   -7.7353 C   0  0  0  0  0  0  0  0  0  0  0  0
   -4.8075    9.7596   -8.0491 C   0  0  0  0  0  0  0  0  0  0  0  0
   -3.4358   11.5809   -7.2415 C   0  0  0  0  0  0  0  0  0  0  0  0
   -4.5835   12.3061   -6.9225 C   0  0  0  0  0  0  0  0  0  0  0  0
   -3.5481   10.3107   -7.8024 C   0  0  0  0  0  0  0  0  0  0  0  0
   -5.8471   11.7541   -7.1666 C   0  0  0  0  0  0  0  0  0  0  0  0
   -4.4650   13.6954   -6.3241 C   0  0  0  0  0  0  0  0  0  0  0  0
   -1.6558   12.5461  -10.1051 H   0  0  0  0  0  0  0  0  0  0  0  0
   -2.1418   14.8314   -9.9056 H   0  0  0  0  0  0  0  0  0  0  0  0
   -1.3273   14.8503  -11.5065 H   0  0  0  0  0  0  0  0  0  0  0  0
   -3.9292   11.6343  -11.3361 H   0  0  0  0  0  0  0  0  0  0  0  0
   -4.0052   12.5329   -9.7825 H   0  0  0  0  0  0  0  0  0  0  0  0
   -1.6986   11.5246  -12.1863 H   0  0  0  0  0  0  0  0  0  0  0  0
   -3.9654   15.7526  -11.0614 H   0  0  0  0  0  0  0  0  0  0  0  0
   -3.3451   15.2065  -12.6563 H   0  0  0  0  0  0  0  0  0  0  0  0
   -5.4494   11.7544  -12.1998 H   0  0  0  0  0  0  0  0  0  0  0  0
   -8.1726   10.1006  -13.8930 H   0  0  0  0  0  0  0  0  0  0  0  0
   -6.0607   12.2852   -9.8870 H   0  0  0  0  0  0  0  0  0  0  0  0
   -9.3939    8.9068  -11.5115 H   0  0  0  0  0  0  0  0  0  0  0  0
   -9.1879    8.7222   -9.5468 H   0  0  0  0  0  0  0  0  0  0  0  0
   -8.0295    9.6121   -7.2551 H   0  0  0  0  0  0  0  0  0  0  0  0
   -4.8892    8.7741   -8.4833 H   0  0  0  0  0  0  0  0  0  0  0  0
   -2.4600   12.0040   -7.0537 H   0  0  0  0  0  0  0  0  0  0  0  0
   -2.6581    9.7501   -8.0474 H   0  0  0  0  0  0  0  0  0  0  0  0
   -6.7366   12.3128   -6.9153 H   0  0  0  0  0  0  0  0  0  0  0  0
   -4.4364   14.4418   -7.1316 H   0  0  0  0  0  0  0  0  0  0  0  0
   -5.3317   13.8902   -5.6754 H   0  0  0  0  0  0  0  0  0  0  0  0
   -3.5409   13.7615   -5.7311 H   0  0  0  0  0  0  0  0  0  0  0  0
  1  2  1  0  0  0  0
  1  3  1  0  0  0  0
  1  4  1  0  0  0  0
  2  5  1  0  0  0  0
  3  6  1  0  0  0  0
  5  6  1  0  0  0  0
  6 12  1  0  0  0  0
  7  8  1  0  0  0  0
  7 10  1  0  0  0  0
  7 12  1  0  0  0  0
  8  9  1  0  0  0  0
  8 11  2  0  0  0  0
  9 15  2  0  0  0  0
 10 14  2  0  0  0  0
 12 13  2  0  0  0  0
 14 15  1  0  0  0  0
 14 18  1  0  0  0  0
 15 16  1  0  0  0  0
 16 17  1  0  0  0  0
 17 18  1  0  0  0  0
 18 19  2  0  0  0  0
 19 20  1  0  0  0  0
 20 21  2  0  0  0  0
 20 25  1  0  0  0  0
 21 24  1  0  0  0  0
 22 23  1  0  0  0  0
 22 24  2  0  0  0  0
 23 25  2  0  0  0  0
 23 26  1  0  0  0  0
  1 27  1  0  0  0  0
  2 28  1  0  0  0  0
  2 29  1  0  0  0  0
  3 30  1  0  0  0  0
  3 31  1  0  0  0  0
  4 32  1  0  0  0  0
  5 33  1  0  0  0  0
  5 34  1  0  0  0  0
  7 35  1  0  0  0  0
  9 36  1  0  0  0  0
 10 37  1  0  0  0  0
 16 38  1  0  0  0  0
 17 39  1  0  0  0  0
 19 40  1  0  0  0  0
 21 41  1  0  0  0  0
 22 42  1  0  0  0  0
 24 43  1  0  0  0  0
 25 44  1  0  0  0  0
 26 45  1  0  0  0  0
 26 46  1  0  0  0  0
 26 47  1  0  0  0  0
M  END
> <Name>
13

> <IC50[uM]>
0.006

$$$$
13
  -OEChem-05192314333D
 Structure written by MMmdl.
 47 50  0     1  0  0  0  0  0999 V2000
   -2.2088   12.9419  -10.9697 C   0  0  1  0  0  0  0  0  0  0  0  0
   -2.1904   14.4671  -10.9424 C   0  0  0  0  0  0  0  0  0  0  0  0
   -3.6992   12.5876  -10.8377 C   0  0  0  0  0  0  0  0  0  0  0  0
   -1.6826   12.4744  -12.1795 O   0  0  0  0  0  0  0  0  0  0  0  0
   -3.5107   14.9139  -11.6089 C   0  0  0  0  0  0  0  0  0  0  0  0
   -4.3443   13.7200  -11.5243 N   0  0  0  0  0  0  0  0  0  0  0  0
   -6.3525   12.3601  -12.0338 C   0  0  0  0  0  0  0  0  0  0  0  0
   -6.9727   11.7556  -13.1375 C   0  0  0  0  0  0  0  0  0  0  0  0
   -7.7097   10.5633  -13.0339 C   0  0  0  0  0  0  0  0  0  0  0  0
   -6.5001   11.8056  -10.7491 C   0  0  0  0  0  0  0  0  0  0  0  0
   -6.8506   12.3073  -14.3824 O   0  0  0  0  0  0  0  0  0  0  0  0
   -5.5377   13.6382  -12.2001 C   0  0  0  0  0  0  0  0  0  0  0  0
   -5.9500   14.5444  -12.9177 O   0  0  0  0  0  0  0  0  0  0  0  0
   -7.2308   10.6159  -10.6131 C   0  0  0  0  0  0  0  0  0  0  0  0
   -7.8083   10.0113  -11.7524 C   0  0  0  0  0  0  0  0  0  0  0  0
   -8.4200    8.8675  -11.2880 N   0  0  0  0  0  0  0  0  0  0  0  0
   -8.2847    8.7400   -9.9757 N   0  0  0  0  0  0  0  0  0  0  0  0
   -7.6047    9.7473   -9.5145 C   0  0  0  0  0  0  0  0  0  0  0  0
   -7.3264    9.8951   -8.0245 C   0  0  0  0  0  0  0  0  0  0  0  0
   -5.9604   10.4805   -7.7353 C   0  0  0  0  0  0  0  0  0  0  0  0
   -4.8075    9.7596   -8.0491 C   0  0  0  0  0  0  0  0  0  0  0  0
   -3.4358   11.5809   -7.2415 C   0  0  0  0  0  0  0  0  0  0  0  0
   -4.5835   12.3061   -6.9225 C   0  0  0  0  0  0  0  0  0  0  0  0
   -3.5481   10.3107   -7.8024 C   0  0  0  0  0  0  0  0  0  0  0  0
   -5.8471   11.7541   -7.1666 C   0  0  0  0  0  0  0  0  0  0  0  0
   -4.4650   13.6954   -6.3241 C   0  0  0  0  0  0  0  0  0  0  0  0
   -1.6558   12.5461  -10.1051 H   0  0  0  0  0  0  0  0  0  0  0  0
   -2.1418   14.8314   -9.9056 H   0  0  0  0  0  0  0  0  0  0  0  0
   -1.3273   14.8503  -11.5065 H   0  0  0  0  0  0  0  0  0  0  0  0
   -3.9292   11.6343  -11.3361 H   0  0  0  0  0  0  0  0  0  0  0  0
   -4.0052   12.5329   -9.7825 H   0  0  0  0  0  0  0  0  0  0  0  0
   -1.6986   11.5246  -12.1863 H   0  0  0  0  0  0  0  0  0  0  0  0
   -3.9654   15.7526  -11.0614 H   0  0  0  0  0  0  0  0  0  0  0  0
   -3.3451   15.2065  -12.6563 H   0  0  0  0  0  0  0  0  0  0  0  0
   -8.1726   10.1006  -13.8930 H   0  0  0  0  0  0  0  0  0  0  0  0
   -6.0607   12.2852   -9.8870 H   0  0  0  0  0  0  0  0  0  0  0  0
   -6.3117   10.0311  -10.7657 H   0  0  0  0  0  0  0  0  0  0  0  0
   -9.3939    8.9068  -11.5115 H   0  0  0  0  0  0  0  0  0  0  0  0
   -9.1879    8.7222   -9.5468 H   0  0  0  0  0  0  0  0  0  0  0  0
   -8.0295    9.6121   -7.2551 H   0  0  0  0  0  0  0  0  0  0  0  0
   -4.8892    8.7741   -8.4833 H   0  0  0  0  0  0  0  0  0  0  0  0
   -2.4600   12.0040   -7.0537 H   0  0  0  0  0  0  0  0  0  0  0  0
   -2.6581    9.7501   -8.0474 H   0  0  0  0  0  0  0  0  0  0  0  0
   -6.7366   12.3128   -6.9153 H   0  0  0  0  0  0  0  0  0  0  0  0
   -4.4364   14.4418   -7.1316 H   0  0  0  0  0  0  0  0  0  0  0  0
   -5.3317   13.8902   -5.6754 H   0  0  0  0  0  0  0  0  0  0  0  0
   -3.5409   13.7615   -5.7311 H   0  0  0  0  0  0  0  0  0  0  0  0
  1  2  1  0  0  0  0
  1  3  1  0  0  0  0
  1  4  1  0  0  0  0
  2  5  1  0  0  0  0
  3  6  1  0  0  0  0
  5  6  1  0  0  0  0
  6 12  1  0  0  0  0
  7  8  1  0  0  0  0
  7 10  2  0  0  0  0
  7 12  1  0  0  0  0
  8  9  1  0  0  0  0
  8 11  2  0  0  0  0
  9 15  2  0  0  0  0
 10 14  1  0  0  0  0
 12 13  2  0  0  0  0
 14 15  1  0  0  0  0
 14 18  1  0  0  0  0
 15 16  1  0  0  0  0
 16 17  1  0  0  0  0
 17 18  1  0  0  0  0
 18 19  2  0  0  0  0
 19 20  1  0  0  0  0
 20 21  2  0  0  0  0
 20 25  1  0  0  0  0
 21 24  1  0  0  0  0
 22 23  1  0  0  0  0
 22 24  2  0  0  0  0
 23 25  2  0  0  0  0
 23 26  1  0  0  0  0
  1 27  1  0  0  0  0
  2 28  1  0  0  0  0
  2 29  1  0  0  0  0
  3 30  1  0  0  0  0
  3 31  1  0  0  0  0
  4 32  1  0  0  0  0
  5 33  1  0  0  0  0
  5 34  1  0  0  0  0
  9 35  1  0  0  0  0
 10 36  1  0  0  0  0
 14 37  1  0  0  0  0
 16 38  1  0  0  0  0
 17 39  1  0  0  0  0
 19 40  1  0  0  0  0
 21 41  1  0  0  0  0
 22 42  1  0  0  0  0
 24 43  1  0  0  0  0
 25 44  1  0  0  0  0
 26 45  1  0  0  0  0
 26 46  1  0  0  0  0
 26 47  1  0  0  0  0
M  END
> <Name>
13

> <IC50[uM]>
0.006

$$$$
13
  -OEChem-05192314333D
 Structure written by MMmdl.
 47 50  0     1  0  0  0  0  0999 V2000
   -2.2088   12.9419  -10.9697 C   0  0  1  0  0  0  0  0  0  0  0  0
   -2.1904   14.4671  -10.9424 C   0  0  0  0  0  0  0  0  0  0  0  0
   -3.6992   12.5876  -10.8377 C   0  0  0  0  0  0  0  0  0  0  0  0
   -1.6826   12.4744  -12.1795 O   0  0  0  0  0  0  0  0  0  0  0  0
   -3.5107   14.9139  -11.6089 C   0  0  0  0  0  0  0  0  0  0  0  0
   -4.3443   13.7200  -11.5243 N   0  0  0  0  0  0  0  0  0  0  0  0
   -6.3525   12.3601  -12.0338 C   0  0  0  0  0  0  0  0  0  0  0  0
   -6.9727   11.7556  -13.1375 C   0  0  0  0  0  0  0  0  0  0  0  0
   -7.7097   10.5633  -13.0339 C   0  0  0  0  0  0  0  0  0  0  0  0
   -6.5001   11.8056  -10.7491 C   0  0  0  0  0  0  0  0  0  0  0  0
   -6.8506   12.3073  -14.3824 O   0  0  0  0  0  0  0  0  0  0  0  0
   -5.5377   13.6382  -12.2001 C   0  0  0  0  0  0  0  0  0  0  0  0
   -5.9500   14.5444  -12.9177 O   0  0  0  0  0  0  0  0  0  0  0  0
   -7.2308   10.6159  -10.6131 C   0  0  0  0  0  0  0  0  0  0  0  0
   -7.8083   10.0113  -11.7524 C   0  0  0  0  0  0  0  0  0  0  0  0
   -8.4200    8.8675  -11.2880 N   0  0  0  0  0  0  0  0  0  0  0  0
   -8.2847    8.7400   -9.9757 N   0  0  0  0  0  0  0  0  0  0  0  0
   -7.6047    9.7473   -9.5145 C   0  0  0  0  0  0  0  0  0  0  0  0
   -7.3264    9.8951   -8.0245 C   0  0  0  0  0  0  0  0  0  0  0  0
   -5.9604   10.4805   -7.7353 C   0  0  0  0  0  0  0  0  0  0  0  0
   -4.8075    9.7596   -8.0491 C   0  0  0  0  0  0  0  0  0  0  0  0
   -3.4358   11.5809   -7.2415 C   0  0  0  0  0  0  0  0  0  0  0  0
   -4.5835   12.3061   -6.9225 C   0  0  0  0  0  0  0  0  0  0  0  0
   -3.5481   10.3107   -7.8024 C   0  0  0  0  0  0  0  0  0  0  0  0
   -5.8471   11.7541   -7.1666 C   0  0  0  0  0  0  0  0  0  0  0  0
   -4.4650   13.6954   -6.3241 C   0  0  0  0  0  0  0  0  0  0  0  0
   -1.6558   12.5461  -10.1051 H   0  0  0  0  0  0  0  0  0  0  0  0
   -2.1418   14.8314   -9.9056 H   0  0  0  0  0  0  0  0  0  0  0  0
   -1.3273   14.8503  -11.5065 H   0  0  0  0  0  0  0  0  0  0  0  0
   -3.9292   11.6343  -11.3361 H   0  0  0  0  0  0  0  0  0  0  0  0
   -4.0052   12.5329   -9.7825 H   0  0  0  0  0  0  0  0  0  0  0  0
   -1.6986   11.5246  -12.1863 H   0  0  0  0  0  0  0  0  0  0  0  0
   -3.9654   15.7526  -11.0614 H   0  0  0  0  0  0  0  0  0  0  0  0
   -3.3451   15.2065  -12.6563 H   0  0  0  0  0  0  0  0  0  0  0  0
   -8.7298   10.7663  -13.3920 H   0  0  0  0  0  0  0  0  0  0  0  0
   -7.2340    9.8162  -13.6862 H   0  0  0  0  0  0  0  0  0  0  0  0
   -6.0607   12.2852   -9.8870 H   0  0  0  0  0  0  0  0  0  0  0  0
   -9.3939    8.9068  -11.5115 H   0  0  0  0  0  0  0  0  0  0  0  0
   -9.1879    8.7222   -9.5468 H   0  0  0  0  0  0  0  0  0  0  0  0
   -8.0295    9.6121   -7.2551 H   0  0  0  0  0  0  0  0  0  0  0  0
   -4.8892    8.7741   -8.4833 H   0  0  0  0  0  0  0  0  0  0  0  0
   -2.4600   12.0040   -7.0537 H   0  0  0  0  0  0  0  0  0  0  0  0
   -2.6581    9.7501   -8.0474 H   0  0  0  0  0  0  0  0  0  0  0  0
   -6.7366   12.3128   -6.9153 H   0  0  0  0  0  0  0  0  0  0  0  0
   -4.4364   14.4418   -7.1316 H   0  0  0  0  0  0  0  0  0  0  0  0
   -5.3317   13.8902   -5.6754 H   0  0  0  0  0  0  0  0  0  0  0  0
   -3.5409   13.7615   -5.7311 H   0  0  0  0  0  0  0  0  0  0  0  0
  1  2  1  0  0  0  0
  1  3  1  0  0  0  0
  1  4  1  0  0  0  0
  2  5  1  0  0  0  0
  3  6  1  0  0  0  0
  5  6  1  0  0  0  0
  6 12  1  0  0  0  0
  7  8  1  0  0  0  0
  7 10  2  0  0  0  0
  7 12  1  0  0  0  0
  8  9  1  0  0  0  0
  8 11  2  0  0  0  0
  9 15  1  0  0  0  0
 10 14  1  0  0  0  0
 12 13  2  0  0  0  0
 14 15  2  0  0  0  0
 14 18  1  0  0  0  0
 15 16  1  0  0  0  0
 16 17  1  0  0  0  0
 17 18  1  0  0  0  0
 18 19  2  0  0  0  0
 19 20  1  0  0  0  0
 20 21  2  0  0  0  0
 20 25  1  0  0  0  0
 21 24  1  0  0  0  0
 22 23  1  0  0  0  0
 22 24  2  0  0  0  0
 23 25  2  0  0  0  0
 23 26  1  0  0  0  0
  1 27  1  0  0  0  0
  2 28  1  0  0  0  0
  2 29  1  0  0  0  0
  3 30  1  0  0  0  0
  3 31  1  0  0  0  0
  4 32  1  0  0  0  0
  5 33  1  0  0  0  0
  5 34  1  0  0  0  0
  9 35  1  0  0  0  0
  9 36  1  0  0  0  0
 10 37  1  0  0  0  0
 16 38  1  0  0  0  0
 17 39  1  0  0  0  0
 19 40  1  0  0  0  0
 21 41  1  0  0  0  0
 22 42  1  0  0  0  0
 24 43  1  0  0  0  0
 25 44  1  0  0  0  0
 26 45  1  0  0  0  0
 26 46  1  0  0  0  0
 26 47  1  0  0  0  0
M  END
> <Name>
13

> <IC50[uM]>
0.006

$$$$
13
  -OEChem-05192314333D
 Structure written by MMmdl.
 47 50  0     1  0  0  0  0  0999 V2000
   -2.2088   12.9419  -10.9697 C   0  0  1  0  0  0  0  0  0  0  0  0
   -2.1904   14.4671  -10.9424 C   0  0  0  0  0  0  0  0  0  0  0  0
   -3.6992   12.5876  -10.8377 C   0  0  0  0  0  0  0  0  0  0  0  0
   -1.6826   12.4744  -12.1795 O   0  0  0  0  0  0  0  0  0  0  0  0
   -3.5107   14.9139  -11.6089 C   0  0  0  0  0  0  0  0  0  0  0  0
   -4.3443   13.7200  -11.5243 N   0  0  0  0  0  0  0  0  0  0  0  0
   -6.3525   12.3601  -12.0338 C   0  0  0  0  0  0  0  0  0  0  0  0
   -6.9727   11.7556  -13.1375 C   0  0  0  0  0  0  0  0  0  0  0  0
   -7.7097   10.5633  -13.0339 C   0  0  0  0  0  0  0  0  0  0  0  0
   -6.5001   11.8056  -10.7491 C   0  0  0  0  0  0  0  0  0  0  0  0
   -6.8506   12.3073  -14.3824 O   0  0  0  0  0  0  0  0  0  0  0  0
   -5.5377   13.6382  -12.2001 C   0  0  0  0  0  0  0  0  0  0  0  0
   -5.9500   14.5444  -12.9177 O   0  0  0  0  0  0  0  0  0  0  0  0
   -7.2308   10.6159  -10.6131 C   0  0  0  0  0  0  0  0  0  0  0  0
   -7.8083   10.0113  -11.7524 C   0  0  0  0  0  0  0  0  0  0  0  0
   -8.4200    8.8675  -11.2880 N   0  0  0  0  0  0  0  0  0  0  0  0
   -8.2847    8.7400   -9.9757 N   0  0  0  0  0  0  0  0  0  0  0  0
   -7.6047    9.7473   -9.5145 C   0  0  0  0  0  0  0  0  0  0  0  0
   -7.3264    9.8951   -8.0245 C   0  0  0  0  0  0  0  0  0  0  0  0
   -5.9604   10.4805   -7.7353 C   0  0  0  0  0  0  0  0  0  0  0  0
   -4.8075    9.7596   -8.0491 C   0  0  0  0  0  0  0  0  0  0  0  0
   -3.4358   11.5809   -7.2415 C   0  0  0  0  0  0  0  0  0  0  0  0
   -4.5835   12.3061   -6.9225 C   0  0  0  0  0  0  0  0  0  0  0  0
   -3.5481   10.3107   -7.8024 C   0  0  0  0  0  0  0  0  0  0  0  0
   -5.8471   11.7541   -7.1666 C   0  0  0  0  0  0  0  0  0  0  0  0
   -4.4650   13.6954   -6.3241 C   0  0  0  0  0  0  0  0  0  0  0  0
   -1.6558   12.5461  -10.1051 H   0  0  0  0  0  0  0  0  0  0  0  0
   -2.1418   14.8314   -9.9056 H   0  0  0  0  0  0  0  0  0  0  0  0
   -1.3273   14.8503  -11.5065 H   0  0  0  0  0  0  0  0  0  0  0  0
   -3.9292   11.6343  -11.3361 H   0  0  0  0  0  0  0  0  0  0  0  0
   -4.0052   12.5329   -9.7825 H   0  0  0  0  0  0  0  0  0  0  0  0
   -1.6986   11.5246  -12.1863 H   0  0  0  0  0  0  0  0  0  0  0  0
   -3.9654   15.7526  -11.0614 H   0  0  0  0  0  0  0  0  0  0  0  0
   -3.3451   15.2065  -12.6563 H   0  0  0  0  0  0  0  0  0  0  0  0
   -5.4494   11.7544  -12.1998 H   0  0  0  0  0  0  0  0  0  0  0  0
   -8.1726   10.1006  -13.8930 H   0  0  0  0  0  0  0  0  0  0  0  0
   -6.0607   12.2852   -9.8870 H   0  0  0  0  0  0  0  0  0  0  0  0
   -6.5242   13.1961  -14.3048 H   0  0  0  0  0  0  0  0  0  0  0  0
   -6.8802    9.4462  -11.9237 H   0  0  0  0  0  0  0  0  0  0  0  0
   -8.0295    9.6121   -7.2551 H   0  0  0  0  0  0  0  0  0  0  0  0
   -4.8892    8.7741   -8.4833 H   0  0  0  0  0  0  0  0  0  0  0  0
   -2.4600   12.0040   -7.0537 H   0  0  0  0  0  0  0  0  0  0  0  0
   -2.6581    9.7501   -8.0474 H   0  0  0  0  0  0  0  0  0  0  0  0
   -6.7366   12.3128   -6.9153 H   0  0  0  0  0  0  0  0  0  0  0  0
   -4.4364   14.4418   -7.1316 H   0  0  0  0  0  0  0  0  0  0  0  0
   -5.3317   13.8902   -5.6754 H   0  0  0  0  0  0  0  0  0  0  0  0
   -3.5409   13.7615   -5.7311 H   0  0  0  0  0  0  0  0  0  0  0  0
  1  2  1  0  0  0  0
  1  3  1  0  0  0  0
  1  4  1  0  0  0  0
  2  5  1  0  0  0  0
  3  6  1  0  0  0  0
  5  6  1  0  0  0  0
  6 12  1  0  0  0  0
  7  8  1  0  0  0  0
  7 10  1  0  0  0  0
  7 12  1  0  0  0  0
  8  9  2  0  0  0  0
  8 11  1  0  0  0  0
  9 15  1  0  0  0  0
 10 14  2  0  0  0  0
 12 13  2  0  0  0  0
 14 15  1  0  0  0  0
 14 18  1  0  0  0  0
 15 16  1  0  0  0  0
 16 17  2  0  0  0  0
 17 18  1  0  0  0  0
 18 19  2  0  0  0  0
 19 20  1  0  0  0  0
 20 21  2  0  0  0  0
 20 25  1  0  0  0  0
 21 24  1  0  0  0  0
 22 23  1  0  0  0  0
 22 24  2  0  0  0  0
 23 25  2  0  0  0  0
 23 26  1  0  0  0  0
  1 27  1  0  0  0  0
  2 28  1  0  0  0  0
  2 29  1  0  0  0  0
  3 30  1  0  0  0  0
  3 31  1  0  0  0  0
  4 32  1  0  0  0  0
  5 33  1  0  0  0  0
  5 34  1  0  0  0  0
  7 35  1  0  0  0  0
  9 36  1  0  0  0  0
 10 37  1  0  0  0  0
 11 38  1  0  0  0  0
 15 39  1  0  0  0  0
 19 40  1  0  0  0  0
 21 41  1  0  0  0  0
 22 42  1  0  0  0  0
 24 43  1  0  0  0  0
 25 44  1  0  0  0  0
 26 45  1  0  0  0  0
 26 46  1  0  0  0  0
 26 47  1  0  0  0  0
M  END
> <Name>
13

> <IC50[uM]>
0.006

$$$$
13
  -OEChem-05192314333D
 Structure written by MMmdl.
 47 50  0     1  0  0  0  0  0999 V2000
   -2.2088   12.9419  -10.9697 C   0  0  1  0  0  0  0  0  0  0  0  0
   -2.1904   14.4671  -10.9424 C   0  0  0  0  0  0  0  0  0  0  0  0
   -3.6992   12.5876  -10.8377 C   0  0  0  0  0  0  0  0  0  0  0  0
   -1.6826   12.4744  -12.1795 O   0  0  0  0  0  0  0  0  0  0  0  0
   -3.5107   14.9139  -11.6089 C   0  0  0  0  0  0  0  0  0  0  0  0
   -4.3443   13.7200  -11.5243 N   0  0  0  0  0  0  0  0  0  0  0  0
   -6.3525   12.3601  -12.0338 C   0  0  0  0  0  0  0  0  0  0  0  0
   -6.9727   11.7556  -13.1375 C   0  0  0  0  0  0  0  0  0  0  0  0
   -7.7097   10.5633  -13.0339 C   0  0  0  0  0  0  0  0  0  0  0  0
   -6.5001   11.8056  -10.7491 C   0  0  0  0  0  0  0  0  0  0  0  0
   -6.8506   12.3073  -14.3824 O   0  0  0  0  0  0  0  0  0  0  0  0
   -5.5377   13.6382  -12.2001 C   0  0  0  0  0  0  0  0  0  0  0  0
   -5.9500   14.5444  -12.9177 O   0  0  0  0  0  0  0  0  0  0  0  0
   -7.2308   10.6159  -10.6131 C   0  0  0  0  0  0  0  0  0  0  0  0
   -7.8083   10.0113  -11.7524 C   0  0  0  0  0  0  0  0  0  0  0  0
   -8.4200    8.8675  -11.2880 N   0  0  0  0  0  0  0  0  0  0  0  0
   -8.2847    8.7400   -9.9757 N   0  0  0  0  0  0  0  0  0  0  0  0
   -7.6047    9.7473   -9.5145 C   0  0  0  0  0  0  0  0  0  0  0  0
   -7.3264    9.8951   -8.0245 C   0  0  0  0  0  0  0  0  0  0  0  0
   -5.9604   10.4805   -7.7353 C   0  0  0  0  0  0  0  0  0  0  0  0
   -4.8075    9.7596   -8.0491 C   0  0  0  0  0  0  0  0  0  0  0  0
   -3.4358   11.5809   -7.2415 C   0  0  0  0  0  0  0  0  0  0  0  0
   -4.5835   12.3061   -6.9225 C   0  0  0  0  0  0  0  0  0  0  0  0
   -3.5481   10.3107   -7.8024 C   0  0  0  0  0  0  0  0  0  0  0  0
   -5.8471   11.7541   -7.1666 C   0  0  0  0  0  0  0  0  0  0  0  0
   -4.4650   13.6954   -6.3241 C   0  0  0  0  0  0  0  0  0  0  0  0
   -1.6558   12.5461  -10.1051 H   0  0  0  0  0  0  0  0  0  0  0  0
   -2.1418   14.8314   -9.9056 H   0  0  0  0  0  0  0  0  0  0  0  0
   -1.3273   14.8503  -11.5065 H   0  0  0  0  0  0  0  0  0  0  0  0
   -3.9292   11.6343  -11.3361 H   0  0  0  0  0  0  0  0  0  0  0  0
   -4.0052   12.5329   -9.7825 H   0  0  0  0  0  0  0  0  0  0  0  0
   -1.6986   11.5246  -12.1863 H   0  0  0  0  0  0  0  0  0  0  0  0
   -3.9654   15.7526  -11.0614 H   0  0  0  0  0  0  0  0  0  0  0  0
   -3.3451   15.2065  -12.6563 H   0  0  0  0  0  0  0  0  0  0  0  0
   -8.1726   10.1006  -13.8930 H   0  0  0  0  0  0  0  0  0  0  0  0
   -6.0607   12.2852   -9.8870 H   0  0  0  0  0  0  0  0  0  0  0  0
   -6.5242   13.1961  -14.3048 H   0  0  0  0  0  0  0  0  0  0  0  0
   -6.3117   10.0311  -10.7657 H   0  0  0  0  0  0  0  0  0  0  0  0
   -6.8802    9.4462  -11.9237 H   0  0  0  0  0  0  0  0  0  0  0  0
   -8.0295    9.6121   -7.2551 H   0  0  0  0  0  0  0  0  0  0  0  0
   -4.8892    8.7741   -8.4833 H   0  0  0  0  0  0  0  0  0  0  0  0
   -2.4600   12.0040   -7.0537 H   0  0  0  0  0  0  0  0  0  0  0  0
   -2.6581    9.7501   -8.0474 H   0  0  0  0  0  0  0  0  0  0  0  0
   -6.7366   12.3128   -6.9153 H   0  0  0  0  0  0  0  0  0  0  0  0
   -4.4364   14.4418   -7.1316 H   0  0  0  0  0  0  0  0  0  0  0  0
   -5.3317   13.8902   -5.6754 H   0  0  0  0  0  0  0  0  0  0  0  0
   -3.5409   13.7615   -5.7311 H   0  0  0  0  0  0  0  0  0  0  0  0
  1  2  1  0  0  0  0
  1  3  1  0  0  0  0
  1  4  1  0  0  0  0
  2  5  1  0  0  0  0
  3  6  1  0  0  0  0
  5  6  1  0  0  0  0
  6 12  1  0  0  0  0
  7  8  1  0  0  0  0
  7 10  2  0  0  0  0
  7 12  1  0  0  0  0
  8  9  2  0  0  0  0
  8 11  1  0  0  0  0
  9 15  1  0  0  0  0
 10 14  1  0  0  0  0
 12 13  2  0  0  0  0
 14 15  1  0  0  0  0
 14 18  1  0  0  0  0
 15 16  1  0  0  0  0
 16 17  2  0  0  0  0
 17 18  1  0  0  0  0
 18 19  2  0  0  0  0
 19 20  1  0  0  0  0
 20 21  2  0  0  0  0
 20 25  1  0  0  0  0
 21 24  1  0  0  0  0
 22 23  1  0  0  0  0
 22 24  2  0  0  0  0
 23 25  2  0  0  0  0
 23 26  1  0  0  0  0
  1 27  1  0  0  0  0
  2 28  1  0  0  0  0
  2 29  1  0  0  0  0
  3 30  1  0  0  0  0
  3 31  1  0  0  0  0
  4 32  1  0  0  0  0
  5 33  1  0  0  0  0
  5 34  1  0  0  0  0
  9 35  1  0  0  0  0
 10 36  1  0  0  0  0
 11 37  1  0  0  0  0
 14 38  1  0  0  0  0
 15 39  1  0  0  0  0
 19 40  1  0  0  0  0
 21 41  1  0  0  0  0
 22 42  1  0  0  0  0
 24 43  1  0  0  0  0
 25 44  1  0  0  0  0
 26 45  1  0  0  0  0
 26 46  1  0  0  0  0
 26 47  1  0  0  0  0
M  END
> <Name>
13

> <IC50[uM]>
0.006

$$$$
13
  -OEChem-05192314333D
 Structure written by MMmdl.
 47 50  0     1  0  0  0  0  0999 V2000
   -2.2088   12.9419  -10.9697 C   0  0  1  0  0  0  0  0  0  0  0  0
   -2.1904   14.4671  -10.9424 C   0  0  0  0  0  0  0  0  0  0  0  0
   -3.6992   12.5876  -10.8377 C   0  0  0  0  0  0  0  0  0  0  0  0
   -1.6826   12.4744  -12.1795 O   0  0  0  0  0  0  0  0  0  0  0  0
   -3.5107   14.9139  -11.6089 C   0  0  0  0  0  0  0  0  0  0  0  0
   -4.3443   13.7200  -11.5243 N   0  0  0  0  0  0  0  0  0  0  0  0
   -6.3525   12.3601  -12.0338 C   0  0  0  0  0  0  0  0  0  0  0  0
   -6.9727   11.7556  -13.1375 C   0  0  0  0  0  0  0  0  0  0  0  0
   -7.7097   10.5633  -13.0339 C   0  0  0  0  0  0  0  0  0  0  0  0
   -6.5001   11.8056  -10.7491 C   0  0  0  0  0  0  0  0  0  0  0  0
   -6.8506   12.3073  -14.3824 O   0  0  0  0  0  0  0  0  0  0  0  0
   -5.5377   13.6382  -12.2001 C   0  0  0  0  0  0  0  0  0  0  0  0
   -5.9500   14.5444  -12.9177 O   0  0  0  0  0  0  0  0  0  0  0  0
   -7.2308   10.6159  -10.6131 C   0  0  0  0  0  0  0  0  0  0  0  0
   -7.8083   10.0113  -11.7524 C   0  0  0  0  0  0  0  0  0  0  0  0
   -8.4200    8.8675  -11.2880 N   0  0  0  0  0  0  0  0  0  0  0  0
   -8.2847    8.7400   -9.9757 N   0  0  0  0  0  0  0  0  0  0  0  0
   -7.6047    9.7473   -9.5145 C   0  0  0  0  0  0  0  0  0  0  0  0
   -7.3264    9.8951   -8.0245 C   0  0  0  0  0  0  0  0  0  0  0  0
   -5.9604   10.4805   -7.7353 C   0  0  0  0  0  0  0  0  0  0  0  0
   -4.8075    9.7596   -8.0491 C   0  0  0  0  0  0  0  0  0  0  0  0
   -3.4358   11.5809   -7.2415 C   0  0  0  0  0  0  0  0  0  0  0  0
   -4.5835   12.3061   -6.9225 C   0  0  0  0  0  0  0  0  0  0  0  0
   -3.5481   10.3107   -7.8024 C   0  0  0  0  0  0  0  0  0  0  0  0
   -5.8471   11.7541   -7.1666 C   0  0  0  0  0  0  0  0  0  0  0  0
   -4.4650   13.6954   -6.3241 C   0  0  0  0  0  0  0  0  0  0  0  0
   -1.6558   12.5461  -10.1051 H   0  0  0  0  0  0  0  0  0  0  0  0
   -2.1418   14.8314   -9.9056 H   0  0  0  0  0  0  0  0  0  0  0  0
   -1.3273   14.8503  -11.5065 H   0  0  0  0  0  0  0  0  0  0  0  0
   -3.9292   11.6343  -11.3361 H   0  0  0  0  0  0  0  0  0  0  0  0
   -4.0052   12.5329   -9.7825 H   0  0  0  0  0  0  0  0  0  0  0  0
   -1.6986   11.5246  -12.1863 H   0  0  0  0  0  0  0  0  0  0  0  0
   -3.9654   15.7526  -11.0614 H   0  0  0  0  0  0  0  0  0  0  0  0
   -3.3451   15.2065  -12.6563 H   0  0  0  0  0  0  0  0  0  0  0  0
   -5.4494   11.7544  -12.1998 H   0  0  0  0  0  0  0  0  0  0  0  0
   -7.8845   12.3440  -12.9574 H   0  0  0  0  0  0  0  0  0  0  0  0
   -8.1726   10.1006  -13.8930 H   0  0  0  0  0  0  0  0  0  0  0  0
   -6.0607   12.2852   -9.8870 H   0  0  0  0  0  0  0  0  0  0  0  0
   -6.5242   13.1961  -14.3048 H   0  0  0  0  0  0  0  0  0  0  0  0
   -8.0295    9.6121   -7.2551 H   0  0  0  0  0  0  0  0  0  0  0  0
   -4.8892    8.7741   -8.4833 H   0  0  0  0  0  0  0  0  0  0  0  0
   -2.4600   12.0040   -7.0537 H   0  0  0  0  0  0  0  0  0  0  0  0
   -2.6581    9.7501   -8.0474 H   0  0  0  0  0  0  0  0  0  0  0  0
   -6.7366   12.3128   -6.9153 H   0  0  0  0  0  0  0  0  0  0  0  0
   -4.4364   14.4418   -7.1316 H   0  0  0  0  0  0  0  0  0  0  0  0
   -5.3317   13.8902   -5.6754 H   0  0  0  0  0  0  0  0  0  0  0  0
   -3.5409   13.7615   -5.7311 H   0  0  0  0  0  0  0  0  0  0  0  0
  1  2  1  0  0  0  0
  1  3  1  0  0  0  0
  1  4  1  0  0  0  0
  2  5  1  0  0  0  0
  3  6  1  0  0  0  0
  5  6  1  0  0  0  0
  6 12  1  0  0  0  0
  7  8  1  0  0  0  0
  7 10  1  0  0  0  0
  7 12  1  0  0  0  0
  8  9  1  0  0  0  0
  8 11  1  0  0  0  0
  9 15  2  0  0  0  0
 10 14  2  0  0  0  0
 12 13  2  0  0  0  0
 14 15  1  0  0  0  0
 14 18  1  0  0  0  0
 15 16  1  0  0  0  0
 16 17  2  0  0  0  0
 17 18  1  0  0  0  0
 18 19  2  0  0  0  0
 19 20  1  0  0  0  0
 20 21  2  0  0  0  0
 20 25  1  0  0  0  0
 21 24  1  0  0  0  0
 22 23  1  0  0  0  0
 22 24  2  0  0  0  0
 23 25  2  0  0  0  0
 23 26  1  0  0  0  0
  1 27  1  0  0  0  0
  2 28  1  0  0  0  0
  2 29  1  0  0  0  0
  3 30  1  0  0  0  0
  3 31  1  0  0  0  0
  4 32  1  0  0  0  0
  5 33  1  0  0  0  0
  5 34  1  0  0  0  0
  7 35  1  0  0  0  0
  8 36  1  0  0  0  0
  9 37  1  0  0  0  0
 10 38  1  0  0  0  0
 11 39  1  0  0  0  0
 19 40  1  0  0  0  0
 21 41  1  0  0  0  0
 22 42  1  0  0  0  0
 24 43  1  0  0  0  0
 25 44  1  0  0  0  0
 26 45  1  0  0  0  0
 26 46  1  0  0  0  0
 26 47  1  0  0  0  0
M  END
> <Name>
13

> <IC50[uM]>
0.006

$$$$
13
  -OEChem-05192314333D
 Structure written by MMmdl.
 47 50  0     1  0  0  0  0  0999 V2000
   -2.2088   12.9419  -10.9697 C   0  0  1  0  0  0  0  0  0  0  0  0
   -2.1904   14.4671  -10.9424 C   0  0  0  0  0  0  0  0  0  0  0  0
   -3.6992   12.5876  -10.8377 C   0  0  0  0  0  0  0  0  0  0  0  0
   -1.6826   12.4744  -12.1795 O   0  0  0  0  0  0  0  0  0  0  0  0
   -3.5107   14.9139  -11.6089 C   0  0  0  0  0  0  0  0  0  0  0  0
   -4.3443   13.7200  -11.5243 N   0  0  0  0  0  0  0  0  0  0  0  0
   -6.3525   12.3601  -12.0338 C   0  0  0  0  0  0  0  0  0  0  0  0
   -6.9727   11.7556  -13.1375 C   0  0  0  0  0  0  0  0  0  0  0  0
   -7.7097   10.5633  -13.0339 C   0  0  0  0  0  0  0  0  0  0  0  0
   -6.5001   11.8056  -10.7491 C   0  0  0  0  0  0  0  0  0  0  0  0
   -6.8506   12.3073  -14.3824 O   0  0  0  0  0  0  0  0  0  0  0  0
   -5.5377   13.6382  -12.2001 C   0  0  0  0  0  0  0  0  0  0  0  0
   -5.9500   14.5444  -12.9177 O   0  0  0  0  0  0  0  0  0  0  0  0
   -7.2308   10.6159  -10.6131 C   0  0  0  0  0  0  0  0  0  0  0  0
   -7.8083   10.0113  -11.7524 C   0  0  0  0  0  0  0  0  0  0  0  0
   -8.4200    8.8675  -11.2880 N   0  0  0  0  0  0  0  0  0  0  0  0
   -8.2847    8.7400   -9.9757 N   0  0  0  0  0  0  0  0  0  0  0  0
   -7.6047    9.7473   -9.5145 C   0  0  0  0  0  0  0  0  0  0  0  0
   -7.3264    9.8951   -8.0245 C   0  0  0  0  0  0  0  0  0  0  0  0
   -5.9604   10.4805   -7.7353 C   0  0  0  0  0  0  0  0  0  0  0  0
   -4.8075    9.7596   -8.0491 C   0  0  0  0  0  0  0  0  0  0  0  0
   -3.4358   11.5809   -7.2415 C   0  0  0  0  0  0  0  0  0  0  0  0
   -4.5835   12.3061   -6.9225 C   0  0  0  0  0  0  0  0  0  0  0  0
   -3.5481   10.3107   -7.8024 C   0  0  0  0  0  0  0  0  0  0  0  0
   -5.8471   11.7541   -7.1666 C   0  0  0  0  0  0  0  0  0  0  0  0
   -4.4650   13.6954   -6.3241 C   0  0  0  0  0  0  0  0  0  0  0  0
   -1.6558   12.5461  -10.1051 H   0  0  0  0  0  0  0  0  0  0  0  0
   -2.1418   14.8314   -9.9056 H   0  0  0  0  0  0  0  0  0  0  0  0
   -1.3273   14.8503  -11.5065 H   0  0  0  0  0  0  0  0  0  0  0  0
   -3.9292   11.6343  -11.3361 H   0  0  0  0  0  0  0  0  0  0  0  0
   -4.0052   12.5329   -9.7825 H   0  0  0  0  0  0  0  0  0  0  0  0
   -1.6986   11.5246  -12.1863 H   0  0  0  0  0  0  0  0  0  0  0  0
   -3.9654   15.7526  -11.0614 H   0  0  0  0  0  0  0  0  0  0  0  0
   -3.3451   15.2065  -12.6563 H   0  0  0  0  0  0  0  0  0  0  0  0
   -7.8845   12.3440  -12.9574 H   0  0  0  0  0  0  0  0  0  0  0  0
   -8.1726   10.1006  -13.8930 H   0  0  0  0  0  0  0  0  0  0  0  0
   -6.0607   12.2852   -9.8870 H   0  0  0  0  0  0  0  0  0  0  0  0
   -6.5242   13.1961  -14.3048 H   0  0  0  0  0  0  0  0  0  0  0  0
   -6.3117   10.0311  -10.7657 H   0  0  0  0  0  0  0  0  0  0  0  0
   -8.0295    9.6121   -7.2551 H   0  0  0  0  0  0  0  0  0  0  0  0
   -4.8892    8.7741   -8.4833 H   0  0  0  0  0  0  0  0  0  0  0  0
   -2.4600   12.0040   -7.0537 H   0  0  0  0  0  0  0  0  0  0  0  0
   -2.6581    9.7501   -8.0474 H   0  0  0  0  0  0  0  0  0  0  0  0
   -6.7366   12.3128   -6.9153 H   0  0  0  0  0  0  0  0  0  0  0  0
   -4.4364   14.4418   -7.1316 H   0  0  0  0  0  0  0  0  0  0  0  0
   -5.3317   13.8902   -5.6754 H   0  0  0  0  0  0  0  0  0  0  0  0
   -3.5409   13.7615   -5.7311 H   0  0  0  0  0  0  0  0  0  0  0  0
  1  2  1  0  0  0  0
  1  3  1  0  0  0  0
  1  4  1  0  0  0  0
  2  5  1  0  0  0  0
  3  6  1  0  0  0  0
  5  6  1  0  0  0  0
  6 12  1  0  0  0  0
  7  8  1  0  0  0  0
  7 10  2  0  0  0  0
  7 12  1  0  0  0  0
  8  9  1  0  0  0  0
  8 11  1  0  0  0  0
  9 15  2  0  0  0  0
 10 14  1  0  0  0  0
 12 13  2  0  0  0  0
 14 15  1  0  0  0  0
 14 18  1  0  0  0  0
 15 16  1  0  0  0  0
 16 17  2  0  0  0  0
 17 18  1  0  0  0  0
 18 19  2  0  0  0  0
 19 20  1  0  0  0  0
 20 21  2  0  0  0  0
 20 25  1  0  0  0  0
 21 24  1  0  0  0  0
 22 23  1  0  0  0  0
 22 24  2  0  0  0  0
 23 25  2  0  0  0  0
 23 26  1  0  0  0  0
  1 27  1  0  0  0  0
  2 28  1  0  0  0  0
  2 29  1  0  0  0  0
  3 30  1  0  0  0  0
  3 31  1  0  0  0  0
  4 32  1  0  0  0  0
  5 33  1  0  0  0  0
  5 34  1  0  0  0  0
  8 35  1  0  0  0  0
  9 36  1  0  0  0  0
 10 37  1  0  0  0  0
 11 38  1  0  0  0  0
 14 39  1  0  0  0  0
 19 40  1  0  0  0  0
 21 41  1  0  0  0  0
 22 42  1  0  0  0  0
 24 43  1  0  0  0  0
 25 44  1  0  0  0  0
 26 45  1  0  0  0  0
 26 46  1  0  0  0  0
 26 47  1  0  0  0  0
M  END
> <Name>
13

> <IC50[uM]>
0.006

$$$$
13
  -OEChem-05192314333D
 Structure written by MMmdl.
 47 50  0     1  0  0  0  0  0999 V2000
   -2.2088   12.9419  -10.9697 C   0  0  1  0  0  0  0  0  0  0  0  0
   -2.1904   14.4671  -10.9424 C   0  0  0  0  0  0  0  0  0  0  0  0
   -3.6992   12.5876  -10.8377 C   0  0  0  0  0  0  0  0  0  0  0  0
   -1.6826   12.4744  -12.1795 O   0  0  0  0  0  0  0  0  0  0  0  0
   -3.5107   14.9139  -11.6089 C   0  0  0  0  0  0  0  0  0  0  0  0
   -4.3443   13.7200  -11.5243 N   0  0  0  0  0  0  0  0  0  0  0  0
   -6.3525   12.3601  -12.0338 C   0  0  0  0  0  0  0  0  0  0  0  0
   -6.9727   11.7556  -13.1375 C   0  0  0  0  0  0  0  0  0  0  0  0
   -7.7097   10.5633  -13.0339 C   0  0  0  0  0  0  0  0  0  0  0  0
   -6.5001   11.8056  -10.7491 C   0  0  0  0  0  0  0  0  0  0  0  0
   -6.8506   12.3073  -14.3824 O   0  0  0  0  0  0  0  0  0  0  0  0
   -5.5377   13.6382  -12.2001 C   0  0  0  0  0  0  0  0  0  0  0  0
   -5.9500   14.5444  -12.9177 O   0  0  0  0  0  0  0  0  0  0  0  0
   -7.2308   10.6159  -10.6131 C   0  0  0  0  0  0  0  0  0  0  0  0
   -7.8083   10.0113  -11.7524 C   0  0  0  0  0  0  0  0  0  0  0  0
   -8.4200    8.8675  -11.2880 N   0  0  0  0  0  0  0  0  0  0  0  0
   -8.2847    8.7400   -9.9757 N   0  0  0  0  0  0  0  0  0  0  0  0
   -7.6047    9.7473   -9.5145 C   0  0  0  0  0  0  0  0  0  0  0  0
   -7.3264    9.8951   -8.0245 C   0  0  0  0  0  0  0  0  0  0  0  0
   -5.9604   10.4805   -7.7353 C   0  0  0  0  0  0  0  0  0  0  0  0
   -4.8075    9.7596   -8.0491 C   0  0  0  0  0  0  0  0  0  0  0  0
   -3.4358   11.5809   -7.2415 C   0  0  0  0  0  0  0  0  0  0  0  0
   -4.5835   12.3061   -6.9225 C   0  0  0  0  0  0  0  0  0  0  0  0
   -3.5481   10.3107   -7.8024 C   0  0  0  0  0  0  0  0  0  0  0  0
   -5.8471   11.7541   -7.1666 C   0  0  0  0  0  0  0  0  0  0  0  0
   -4.4650   13.6954   -6.3241 C   0  0  0  0  0  0  0  0  0  0  0  0
   -1.6558   12.5461  -10.1051 H   0  0  0  0  0  0  0  0  0  0  0  0
   -2.1418   14.8314   -9.9056 H   0  0  0  0  0  0  0  0  0  0  0  0
   -1.3273   14.8503  -11.5065 H   0  0  0  0  0  0  0  0  0  0  0  0
   -3.9292   11.6343  -11.3361 H   0  0  0  0  0  0  0  0  0  0  0  0
   -4.0052   12.5329   -9.7825 H   0  0  0  0  0  0  0  0  0  0  0  0
   -1.6986   11.5246  -12.1863 H   0  0  0  0  0  0  0  0  0  0  0  0
   -3.9654   15.7526  -11.0614 H   0  0  0  0  0  0  0  0  0  0  0  0
   -3.3451   15.2065  -12.6563 H   0  0  0  0  0  0  0  0  0  0  0  0
   -7.8845   12.3440  -12.9574 H   0  0  0  0  0  0  0  0  0  0  0  0
   -8.7298   10.7663  -13.3920 H   0  0  0  0  0  0  0  0  0  0  0  0
   -7.2340    9.8162  -13.6862 H   0  0  0  0  0  0  0  0  0  0  0  0
   -6.0607   12.2852   -9.8870 H   0  0  0  0  0  0  0  0  0  0  0  0
   -6.5242   13.1961  -14.3048 H   0  0  0  0  0  0  0  0  0  0  0  0
   -8.0295    9.6121   -7.2551 H   0  0  0  0  0  0  0  0  0  0  0  0
   -4.8892    8.7741   -8.4833 H   0  0  0  0  0  0  0  0  0  0  0  0
   -2.4600   12.0040   -7.0537 H   0  0  0  0  0  0  0  0  0  0  0  0
   -2.6581    9.7501   -8.0474 H   0  0  0  0  0  0  0  0  0  0  0  0
   -6.7366   12.3128   -6.9153 H   0  0  0  0  0  0  0  0  0  0  0  0
   -4.4364   14.4418   -7.1316 H   0  0  0  0  0  0  0  0  0  0  0  0
   -5.3317   13.8902   -5.6754 H   0  0  0  0  0  0  0  0  0  0  0  0
   -3.5409   13.7615   -5.7311 H   0  0  0  0  0  0  0  0  0  0  0  0
  1  2  1  0  0  0  0
  1  3  1  0  0  0  0
  1  4  1  0  0  0  0
  2  5  1  0  0  0  0
  3  6  1  0  0  0  0
  5  6  1  0  0  0  0
  6 12  1  0  0  0  0
  7  8  1  0  0  0  0
  7 10  2  0  0  0  0
  7 12  1  0  0  0  0
  8  9  1  0  0  0  0
  8 11  1  0  0  0  0
  9 15  1  0  0  0  0
 10 14  1  0  0  0  0
 12 13  2  0  0  0  0
 14 15  2  0  0  0  0
 14 18  1  0  0  0  0
 15 16  1  0  0  0  0
 16 17  2  0  0  0  0
 17 18  1  0  0  0  0
 18 19  2  0  0  0  0
 19 20  1  0  0  0  0
 20 21  2  0  0  0  0
 20 25  1  0  0  0  0
 21 24  1  0  0  0  0
 22 23  1  0  0  0  0
 22 24  2  0  0  0  0
 23 25  2  0  0  0  0
 23 26  1  0  0  0  0
  1 27  1  0  0  0  0
  2 28  1  0  0  0  0
  2 29  1  0  0  0  0
  3 30  1  0  0  0  0
  3 31  1  0  0  0  0
  4 32  1  0  0  0  0
  5 33  1  0  0  0  0
  5 34  1  0  0  0  0
  8 35  1  0  0  0  0
  9 36  1  0  0  0  0
  9 37  1  0  0  0  0
 10 38  1  0  0  0  0
 11 39  1  0  0  0  0
 19 40  1  0  0  0  0
 21 41  1  0  0  0  0
 22 42  1  0  0  0  0
 24 43  1  0  0  0  0
 25 44  1  0  0  0  0
 26 45  1  0  0  0  0
 26 46  1  0  0  0  0
 26 47  1  0  0  0  0
M  END
> <Name>
13

> <IC50[uM]>
0.006

$$$$
13
  -OEChem-05192314333D
 Structure written by MMmdl.
 47 50  0     1  0  0  0  0  0999 V2000
   -2.2088   12.9419  -10.9697 C   0  0  1  0  0  0  0  0  0  0  0  0
   -2.1904   14.4671  -10.9424 C   0  0  0  0  0  0  0  0  0  0  0  0
   -3.6992   12.5876  -10.8377 C   0  0  0  0  0  0  0  0  0  0  0  0
   -1.6826   12.4744  -12.1795 O   0  0  0  0  0  0  0  0  0  0  0  0
   -3.5107   14.9139  -11.6089 C   0  0  0  0  0  0  0  0  0  0  0  0
   -4.3443   13.7200  -11.5243 N   0  0  0  0  0  0  0  0  0  0  0  0
   -6.3525   12.3601  -12.0338 C   0  0  0  0  0  0  0  0  0  0  0  0
   -6.9727   11.7556  -13.1375 C   0  0  0  0  0  0  0  0  0  0  0  0
   -7.7097   10.5633  -13.0339 C   0  0  0  0  0  0  0  0  0  0  0  0
   -6.5001   11.8056  -10.7491 C   0  0  0  0  0  0  0  0  0  0  0  0
   -6.8506   12.3073  -14.3824 O   0  0  0  0  0  0  0  0  0  0  0  0
   -5.5377   13.6382  -12.2001 C   0  0  0  0  0  0  0  0  0  0  0  0
   -5.9500   14.5444  -12.9177 O   0  0  0  0  0  0  0  0  0  0  0  0
   -7.2308   10.6159  -10.6131 C   0  0  0  0  0  0  0  0  0  0  0  0
   -7.8083   10.0113  -11.7524 C   0  0  0  0  0  0  0  0  0  0  0  0
   -8.4200    8.8675  -11.2880 N   0  0  0  0  0  0  0  0  0  0  0  0
   -8.2847    8.7400   -9.9757 N   0  0  0  0  0  0  0  0  0  0  0  0
   -7.6047    9.7473   -9.5145 C   0  0  0  0  0  0  0  0  0  0  0  0
   -7.3264    9.8951   -8.0245 C   0  0  0  0  0  0  0  0  0  0  0  0
   -5.9604   10.4805   -7.7353 C   0  0  0  0  0  0  0  0  0  0  0  0
   -4.8075    9.7596   -8.0491 C   0  0  0  0  0  0  0  0  0  0  0  0
   -3.4358   11.5809   -7.2415 C   0  0  0  0  0  0  0  0  0  0  0  0
   -4.5835   12.3061   -6.9225 C   0  0  0  0  0  0  0  0  0  0  0  0
   -3.5481   10.3107   -7.8024 C   0  0  0  0  0  0  0  0  0  0  0  0
   -5.8471   11.7541   -7.1666 C   0  0  0  0  0  0  0  0  0  0  0  0
   -4.4650   13.6954   -6.3241 C   0  0  0  0  0  0  0  0  0  0  0  0
   -1.6558   12.5461  -10.1051 H   0  0  0  0  0  0  0  0  0  0  0  0
   -2.1418   14.8314   -9.9056 H   0  0  0  0  0  0  0  0  0  0  0  0
   -1.3273   14.8503  -11.5065 H   0  0  0  0  0  0  0  0  0  0  0  0
   -3.9292   11.6343  -11.3361 H   0  0  0  0  0  0  0  0  0  0  0  0
   -4.0052   12.5329   -9.7825 H   0  0  0  0  0  0  0  0  0  0  0  0
   -1.6986   11.5246  -12.1863 H   0  0  0  0  0  0  0  0  0  0  0  0
   -3.9654   15.7526  -11.0614 H   0  0  0  0  0  0  0  0  0  0  0  0
   -3.3451   15.2065  -12.6563 H   0  0  0  0  0  0  0  0  0  0  0  0
   -5.4494   11.7544  -12.1998 H   0  0  0  0  0  0  0  0  0  0  0  0
   -8.1726   10.1006  -13.8930 H   0  0  0  0  0  0  0  0  0  0  0  0
   -5.4892   11.6119  -10.3610 H   0  0  0  0  0  0  0  0  0  0  0  0
   -6.9942   12.5634  -10.1232 H   0  0  0  0  0  0  0  0  0  0  0  0
   -6.5242   13.1961  -14.3048 H   0  0  0  0  0  0  0  0  0  0  0  0
   -8.0295    9.6121   -7.2551 H   0  0  0  0  0  0  0  0  0  0  0  0
   -4.8892    8.7741   -8.4833 H   0  0  0  0  0  0  0  0  0  0  0  0
   -2.4600   12.0040   -7.0537 H   0  0  0  0  0  0  0  0  0  0  0  0
   -2.6581    9.7501   -8.0474 H   0  0  0  0  0  0  0  0  0  0  0  0
   -6.7366   12.3128   -6.9153 H   0  0  0  0  0  0  0  0  0  0  0  0
   -4.4364   14.4418   -7.1316 H   0  0  0  0  0  0  0  0  0  0  0  0
   -5.3317   13.8902   -5.6754 H   0  0  0  0  0  0  0  0  0  0  0  0
   -3.5409   13.7615   -5.7311 H   0  0  0  0  0  0  0  0  0  0  0  0
  1  2  1  0  0  0  0
  1  3  1  0  0  0  0
  1  4  1  0  0  0  0
  2  5  1  0  0  0  0
  3  6  1  0  0  0  0
  5  6  1  0  0  0  0
  6 12  1  0  0  0  0
  7  8  1  0  0  0  0
  7 10  1  0  0  0  0
  7 12  1  0  0  0  0
  8  9  2  0  0  0  0
  8 11  1  0  0  0  0
  9 15  1  0  0  0  0
 10 14  1  0  0  0  0
 12 13  2  0  0  0  0
 14 15  2  0  0  0  0
 14 18  1  0  0  0  0
 15 16  1  0  0  0  0
 16 17  2  0  0  0  0
 17 18  1  0  0  0  0
 18 19  2  0  0  0  0
 19 20  1  0  0  0  0
 20 21  2  0  0  0  0
 20 25  1  0  0  0  0
 21 24  1  0  0  0  0
 22 23  1  0  0  0  0
 22 24  2  0  0  0  0
 23 25  2  0  0  0  0
 23 26  1  0  0  0  0
  1 27  1  0  0  0  0
  2 28  1  0  0  0  0
  2 29  1  0  0  0  0
  3 30  1  0  0  0  0
  3 31  1  0  0  0  0
  4 32  1  0  0  0  0
  5 33  1  0  0  0  0
  5 34  1  0  0  0  0
  7 35  1  0  0  0  0
  9 36  1  0  0  0  0
 10 37  1  0  0  0  0
 10 38  1  0  0  0  0
 11 39  1  0  0  0  0
 19 40  1  0  0  0  0
 21 41  1  0  0  0  0
 22 42  1  0  0  0  0
 24 43  1  0  0  0  0
 25 44  1  0  0  0  0
 26 45  1  0  0  0  0
 26 46  1  0  0  0  0
 26 47  1  0  0  0  0
M  END
> <Name>
13

> <IC50[uM]>
0.006

$$$$
13
  -OEChem-05192314333D
 Structure written by MMmdl.
 47 50  0     1  0  0  0  0  0999 V2000
   -2.2088   12.9419  -10.9697 C   0  0  1  0  0  0  0  0  0  0  0  0
   -2.1904   14.4671  -10.9424 C   0  0  0  0  0  0  0  0  0  0  0  0
   -3.6992   12.5876  -10.8377 C   0  0  0  0  0  0  0  0  0  0  0  0
   -1.6826   12.4744  -12.1795 O   0  0  0  0  0  0  0  0  0  0  0  0
   -3.5107   14.9139  -11.6089 C   0  0  0  0  0  0  0  0  0  0  0  0
   -4.3443   13.7200  -11.5243 N   0  0  0  0  0  0  0  0  0  0  0  0
   -6.3525   12.3601  -12.0338 C   0  0  0  0  0  0  0  0  0  0  0  0
   -6.9727   11.7556  -13.1375 C   0  0  0  0  0  0  0  0  0  0  0  0
   -7.7097   10.5633  -13.0339 C   0  0  0  0  0  0  0  0  0  0  0  0
   -6.5001   11.8056  -10.7491 C   0  0  0  0  0  0  0  0  0  0  0  0
   -6.8506   12.3073  -14.3824 O   0  0  0  0  0  0  0  0  0  0  0  0
   -5.5377   13.6382  -12.2001 C   0  0  0  0  0  0  0  0  0  0  0  0
   -5.9500   14.5444  -12.9177 O   0  0  0  0  0  0  0  0  0  0  0  0
   -7.2308   10.6159  -10.6131 C   0  0  0  0  0  0  0  0  0  0  0  0
   -7.8083   10.0113  -11.7524 C   0  0  0  0  0  0  0  0  0  0  0  0
   -8.4200    8.8675  -11.2880 N   0  0  0  0  0  0  0  0  0  0  0  0
   -8.2847    8.7400   -9.9757 N   0  0  0  0  0  0  0  0  0  0  0  0
   -7.6047    9.7473   -9.5145 C   0  0  0  0  0  0  0  0  0  0  0  0
   -7.3264    9.8951   -8.0245 C   0  0  0  0  0  0  0  0  0  0  0  0
   -5.9604   10.4805   -7.7353 C   0  0  0  0  0  0  0  0  0  0  0  0
   -4.8075    9.7596   -8.0491 C   0  0  0  0  0  0  0  0  0  0  0  0
   -3.4358   11.5809   -7.2415 C   0  0  0  0  0  0  0  0  0  0  0  0
   -4.5835   12.3061   -6.9225 C   0  0  0  0  0  0  0  0  0  0  0  0
   -3.5481   10.3107   -7.8024 C   0  0  0  0  0  0  0  0  0  0  0  0
   -5.8471   11.7541   -7.1666 C   0  0  0  0  0  0  0  0  0  0  0  0
   -4.4650   13.6954   -6.3241 C   0  0  0  0  0  0  0  0  0  0  0  0
   -1.6558   12.5461  -10.1051 H   0  0  0  0  0  0  0  0  0  0  0  0
   -2.1418   14.8314   -9.9056 H   0  0  0  0  0  0  0  0  0  0  0  0
   -1.3273   14.8503  -11.5065 H   0  0  0  0  0  0  0  0  0  0  0  0
   -3.9292   11.6343  -11.3361 H   0  0  0  0  0  0  0  0  0  0  0  0
   -4.0052   12.5329   -9.7825 H   0  0  0  0  0  0  0  0  0  0  0  0
   -1.6986   11.5246  -12.1863 H   0  0  0  0  0  0  0  0  0  0  0  0
   -3.9654   15.7526  -11.0614 H   0  0  0  0  0  0  0  0  0  0  0  0
   -3.3451   15.2065  -12.6563 H   0  0  0  0  0  0  0  0  0  0  0  0
   -8.1726   10.1006  -13.8930 H   0  0  0  0  0  0  0  0  0  0  0  0
   -6.0607   12.2852   -9.8870 H   0  0  0  0  0  0  0  0  0  0  0  0
   -6.5242   13.1961  -14.3048 H   0  0  0  0  0  0  0  0  0  0  0  0
   -6.8802    9.4462  -11.9237 H   0  0  0  0  0  0  0  0  0  0  0  0
   -8.0906   10.5553   -7.5885 H   0  0  0  0  0  0  0  0  0  0  0  0
   -7.3891    8.9020   -7.5556 H   0  0  0  0  0  0  0  0  0  0  0  0
   -4.8892    8.7741   -8.4833 H   0  0  0  0  0  0  0  0  0  0  0  0
   -2.4600   12.0040   -7.0537 H   0  0  0  0  0  0  0  0  0  0  0  0
   -2.6581    9.7501   -8.0474 H   0  0  0  0  0  0  0  0  0  0  0  0
   -6.7366   12.3128   -6.9153 H   0  0  0  0  0  0  0  0  0  0  0  0
   -4.4364   14.4418   -7.1316 H   0  0  0  0  0  0  0  0  0  0  0  0
   -5.3317   13.8902   -5.6754 H   0  0  0  0  0  0  0  0  0  0  0  0
   -3.5409   13.7615   -5.7311 H   0  0  0  0  0  0  0  0  0  0  0  0
  1  2  1  0  0  0  0
  1  3  1  0  0  0  0
  1  4  1  0  0  0  0
  2  5  1  0  0  0  0
  3  6  1  0  0  0  0
  5  6  1  0  0  0  0
  6 12  1  0  0  0  0
  7  8  1  0  0  0  0
  7 10  2  0  0  0  0
  7 12  1  0  0  0  0
  8  9  2  0  0  0  0
  8 11  1  0  0  0  0
  9 15  1  0  0  0  0
 10 14  1  0  0  0  0
 12 13  2  0  0  0  0
 14 15  1  0  0  0  0
 14 18  2  0  0  0  0
 15 16  1  0  0  0  0
 16 17  2  0  0  0  0
 17 18  1  0  0  0  0
 18 19  1  0  0  0  0
 19 20  1  0  0  0  0
 20 21  2  0  0  0  0
 20 25  1  0  0  0  0
 21 24  1  0  0  0  0
 22 23  1  0  0  0  0
 22 24  2  0  0  0  0
 23 25  2  0  0  0  0
 23 26  1  0  0  0  0
  1 27  1  0  0  0  0
  2 28  1  0  0  0  0
  2 29  1  0  0  0  0
  3 30  1  0  0  0  0
  3 31  1  0  0  0  0
  4 32  1  0  0  0  0
  5 33  1  0  0  0  0
  5 34  1  0  0  0  0
  9 35  1  0  0  0  0
 10 36  1  0  0  0  0
 11 37  1  0  0  0  0
 15 38  1  0  0  0  0
 19 39  1  0  0  0  0
 19 40  1  0  0  0  0
 21 41  1  0  0  0  0
 22 42  1  0  0  0  0
 24 43  1  0  0  0  0
 25 44  1  0  0  0  0
 26 45  1  0  0  0  0
 26 46  1  0  0  0  0
 26 47  1  0  0  0  0
M  END
> <Name>
13

> <IC50[uM]>
0.006

$$$$
13
  -OEChem-05192314333D
 Structure written by MMmdl.
 47 50  0     1  0  0  0  0  0999 V2000
   -2.2088   12.9419  -10.9697 C   0  0  1  0  0  0  0  0  0  0  0  0
   -2.1904   14.4671  -10.9424 C   0  0  0  0  0  0  0  0  0  0  0  0
   -3.6992   12.5876  -10.8377 C   0  0  0  0  0  0  0  0  0  0  0  0
   -1.6826   12.4744  -12.1795 O   0  0  0  0  0  0  0  0  0  0  0  0
   -3.5107   14.9139  -11.6089 C   0  0  0  0  0  0  0  0  0  0  0  0
   -4.3443   13.7200  -11.5243 N   0  0  0  0  0  0  0  0  0  0  0  0
   -6.3525   12.3601  -12.0338 C   0  0  0  0  0  0  0  0  0  0  0  0
   -6.9727   11.7556  -13.1375 C   0  0  0  0  0  0  0  0  0  0  0  0
   -7.7097   10.5633  -13.0339 C   0  0  0  0  0  0  0  0  0  0  0  0
   -6.5001   11.8056  -10.7491 C   0  0  0  0  0  0  0  0  0  0  0  0
   -6.8506   12.3073  -14.3824 O   0  0  0  0  0  0  0  0  0  0  0  0
   -5.5377   13.6382  -12.2001 C   0  0  0  0  0  0  0  0  0  0  0  0
   -5.9500   14.5444  -12.9177 O   0  0  0  0  0  0  0  0  0  0  0  0
   -7.2308   10.6159  -10.6131 C   0  0  0  0  0  0  0  0  0  0  0  0
   -7.8083   10.0113  -11.7524 C   0  0  0  0  0  0  0  0  0  0  0  0
   -8.4200    8.8675  -11.2880 N   0  0  0  0  0  0  0  0  0  0  0  0
   -8.2847    8.7400   -9.9757 N   0  0  0  0  0  0  0  0  0  0  0  0
   -7.6047    9.7473   -9.5145 C   0  0  0  0  0  0  0  0  0  0  0  0
   -7.3264    9.8951   -8.0245 C   0  0  0  0  0  0  0  0  0  0  0  0
   -5.9604   10.4805   -7.7353 C   0  0  0  0  0  0  0  0  0  0  0  0
   -4.8075    9.7596   -8.0491 C   0  0  0  0  0  0  0  0  0  0  0  0
   -3.4358   11.5809   -7.2415 C   0  0  0  0  0  0  0  0  0  0  0  0
   -4.5835   12.3061   -6.9225 C   0  0  0  0  0  0  0  0  0  0  0  0
   -3.5481   10.3107   -7.8024 C   0  0  0  0  0  0  0  0  0  0  0  0
   -5.8471   11.7541   -7.1666 C   0  0  0  0  0  0  0  0  0  0  0  0
   -4.4650   13.6954   -6.3241 C   0  0  0  0  0  0  0  0  0  0  0  0
   -1.6558   12.5461  -10.1051 H   0  0  0  0  0  0  0  0  0  0  0  0
   -2.1418   14.8314   -9.9056 H   0  0  0  0  0  0  0  0  0  0  0  0
   -1.3273   14.8503  -11.5065 H   0  0  0  0  0  0  0  0  0  0  0  0
   -3.9292   11.6343  -11.3361 H   0  0  0  0  0  0  0  0  0  0  0  0
   -4.0052   12.5329   -9.7825 H   0  0  0  0  0  0  0  0  0  0  0  0
   -1.6986   11.5246  -12.1863 H   0  0  0  0  0  0  0  0  0  0  0  0
   -3.9654   15.7526  -11.0614 H   0  0  0  0  0  0  0  0  0  0  0  0
   -3.3451   15.2065  -12.6563 H   0  0  0  0  0  0  0  0  0  0  0  0
   -7.8845   12.3440  -12.9574 H   0  0  0  0  0  0  0  0  0  0  0  0
   -8.1726   10.1006  -13.8930 H   0  0  0  0  0  0  0  0  0  0  0  0
   -6.0607   12.2852   -9.8870 H   0  0  0  0  0  0  0  0  0  0  0  0
   -6.5242   13.1961  -14.3048 H   0  0  0  0  0  0  0  0  0  0  0  0
   -8.0906   10.5553   -7.5885 H   0  0  0  0  0  0  0  0  0  0  0  0
   -7.3891    8.9020   -7.5556 H   0  0  0  0  0  0  0  0  0  0  0  0
   -4.8892    8.7741   -8.4833 H   0  0  0  0  0  0  0  0  0  0  0  0
   -2.4600   12.0040   -7.0537 H   0  0  0  0  0  0  0  0  0  0  0  0
   -2.6581    9.7501   -8.0474 H   0  0  0  0  0  0  0  0  0  0  0  0
   -6.7366   12.3128   -6.9153 H   0  0  0  0  0  0  0  0  0  0  0  0
   -4.4364   14.4418   -7.1316 H   0  0  0  0  0  0  0  0  0  0  0  0
   -5.3317   13.8902   -5.6754 H   0  0  0  0  0  0  0  0  0  0  0  0
   -3.5409   13.7615   -5.7311 H   0  0  0  0  0  0  0  0  0  0  0  0
  1  2  1  0  0  0  0
  1  3  1  0  0  0  0
  1  4  1  0  0  0  0
  2  5  1  0  0  0  0
  3  6  1  0  0  0  0
  5  6  1  0  0  0  0
  6 12  1  0  0  0  0
  7  8  1  0  0  0  0
  7 10  2  0  0  0  0
  7 12  1  0  0  0  0
  8  9  1  0  0  0  0
  8 11  1  0  0  0  0
  9 15  2  0  0  0  0
 10 14  1  0  0  0  0
 12 13  2  0  0  0  0
 14 15  1  0  0  0  0
 14 18  2  0  0  0  0
 15 16  1  0  0  0  0
 16 17  2  0  0  0  0
 17 18  1  0  0  0  0
 18 19  1  0  0  0  0
 19 20  1  0  0  0  0
 20 21  2  0  0  0  0
 20 25  1  0  0  0  0
 21 24  1  0  0  0  0
 22 23  1  0  0  0  0
 22 24  2  0  0  0  0
 23 25  2  0  0  0  0
 23 26  1  0  0  0  0
  1 27  1  0  0  0  0
  2 28  1  0  0  0  0
  2 29  1  0  0  0  0
  3 30  1  0  0  0  0
  3 31  1  0  0  0  0
  4 32  1  0  0  0  0
  5 33  1  0  0  0  0
  5 34  1  0  0  0  0
  8 35  1  0  0  0  0
  9 36  1  0  0  0  0
 10 37  1  0  0  0  0
 11 38  1  0  0  0  0
 19 39  1  0  0  0  0
 19 40  1  0  0  0  0
 21 41  1  0  0  0  0
 22 42  1  0  0  0  0
 24 43  1  0  0  0  0
 25 44  1  0  0  0  0
 26 45  1  0  0  0  0
 26 46  1  0  0  0  0
 26 47  1  0  0  0  0
M  END
> <Name>
13

> <IC50[uM]>
0.006

$$$$
13
  -OEChem-05192314333D
 Structure written by MMmdl.
 47 50  0     1  0  0  0  0  0999 V2000
   -2.2088   12.9419  -10.9697 C   0  0  1  0  0  0  0  0  0  0  0  0
   -2.1904   14.4671  -10.9424 C   0  0  0  0  0  0  0  0  0  0  0  0
   -3.6992   12.5876  -10.8377 C   0  0  0  0  0  0  0  0  0  0  0  0
   -1.6826   12.4744  -12.1795 O   0  0  0  0  0  0  0  0  0  0  0  0
   -3.5107   14.9139  -11.6089 C   0  0  0  0  0  0  0  0  0  0  0  0
   -4.3443   13.7200  -11.5243 N   0  0  0  0  0  0  0  0  0  0  0  0
   -6.3525   12.3601  -12.0338 C   0  0  0  0  0  0  0  0  0  0  0  0
   -6.9727   11.7556  -13.1375 C   0  0  0  0  0  0  0  0  0  0  0  0
   -7.7097   10.5633  -13.0339 C   0  0  0  0  0  0  0  0  0  0  0  0
   -6.5001   11.8056  -10.7491 C   0  0  0  0  0  0  0  0  0  0  0  0
   -6.8506   12.3073  -14.3824 O   0  0  0  0  0  0  0  0  0  0  0  0
   -5.5377   13.6382  -12.2001 C   0  0  0  0  0  0  0  0  0  0  0  0
   -5.9500   14.5444  -12.9177 O   0  0  0  0  0  0  0  0  0  0  0  0
   -7.2308   10.6159  -10.6131 C   0  0  0  0  0  0  0  0  0  0  0  0
   -7.8083   10.0113  -11.7524 C   0  0  0  0  0  0  0  0  0  0  0  0
   -8.4200    8.8675  -11.2880 N   0  0  0  0  0  0  0  0  0  0  0  0
   -8.2847    8.7400   -9.9757 N   0  0  0  0  0  0  0  0  0  0  0  0
   -7.6047    9.7473   -9.5145 C   0  0  0  0  0  0  0  0  0  0  0  0
   -7.3264    9.8951   -8.0245 C   0  0  0  0  0  0  0  0  0  0  0  0
   -5.9604   10.4805   -7.7353 C   0  0  0  0  0  0  0  0  0  0  0  0
   -4.8075    9.7596   -8.0491 C   0  0  0  0  0  0  0  0  0  0  0  0
   -3.4358   11.5809   -7.2415 C   0  0  0  0  0  0  0  0  0  0  0  0
   -4.5835   12.3061   -6.9225 C   0  0  0  0  0  0  0  0  0  0  0  0
   -3.5481   10.3107   -7.8024 C   0  0  0  0  0  0  0  0  0  0  0  0
   -5.8471   11.7541   -7.1666 C   0  0  0  0  0  0  0  0  0  0  0  0
   -4.4650   13.6954   -6.3241 C   0  0  0  0  0  0  0  0  0  0  0  0
   -1.6558   12.5461  -10.1051 H   0  0  0  0  0  0  0  0  0  0  0  0
   -2.1418   14.8314   -9.9056 H   0  0  0  0  0  0  0  0  0  0  0  0
   -1.3273   14.8503  -11.5065 H   0  0  0  0  0  0  0  0  0  0  0  0
   -3.9292   11.6343  -11.3361 H   0  0  0  0  0  0  0  0  0  0  0  0
   -4.0052   12.5329   -9.7825 H   0  0  0  0  0  0  0  0  0  0  0  0
   -1.6986   11.5246  -12.1863 H   0  0  0  0  0  0  0  0  0  0  0  0
   -3.9654   15.7526  -11.0614 H   0  0  0  0  0  0  0  0  0  0  0  0
   -3.3451   15.2065  -12.6563 H   0  0  0  0  0  0  0  0  0  0  0  0
   -8.1726   10.1006  -13.8930 H   0  0  0  0  0  0  0  0  0  0  0  0
   -6.0607   12.2852   -9.8870 H   0  0  0  0  0  0  0  0  0  0  0  0
   -6.5242   13.1961  -14.3048 H   0  0  0  0  0  0  0  0  0  0  0  0
   -6.3117   10.0311  -10.7657 H   0  0  0  0  0  0  0  0  0  0  0  0
   -8.6485    7.9874   -9.4268 H   0  0  0  0  0  0  0  0  0  0  0  0
   -8.0295    9.6121   -7.2551 H   0  0  0  0  0  0  0  0  0  0  0  0
   -4.8892    8.7741   -8.4833 H   0  0  0  0  0  0  0  0  0  0  0  0
   -2.4600   12.0040   -7.0537 H   0  0  0  0  0  0  0  0  0  0  0  0
   -2.6581    9.7501   -8.0474 H   0  0  0  0  0  0  0  0  0  0  0  0
   -6.7366   12.3128   -6.9153 H   0  0  0  0  0  0  0  0  0  0  0  0
   -4.4364   14.4418   -7.1316 H   0  0  0  0  0  0  0  0  0  0  0  0
   -5.3317   13.8902   -5.6754 H   0  0  0  0  0  0  0  0  0  0  0  0
   -3.5409   13.7615   -5.7311 H   0  0  0  0  0  0  0  0  0  0  0  0
  1  2  1  0  0  0  0
  1  3  1  0  0  0  0
  1  4  1  0  0  0  0
  2  5  1  0  0  0  0
  3  6  1  0  0  0  0
  5  6  1  0  0  0  0
  6 12  1  0  0  0  0
  7  8  1  0  0  0  0
  7 10  2  0  0  0  0
  7 12  1  0  0  0  0
  8  9  2  0  0  0  0
  8 11  1  0  0  0  0
  9 15  1  0  0  0  0
 10 14  1  0  0  0  0
 12 13  2  0  0  0  0
 14 15  1  0  0  0  0
 14 18  1  0  0  0  0
 15 16  2  0  0  0  0
 16 17  1  0  0  0  0
 17 18  1  0  0  0  0
 18 19  2  0  0  0  0
 19 20  1  0  0  0  0
 20 21  2  0  0  0  0
 20 25  1  0  0  0  0
 21 24  1  0  0  0  0
 22 23  1  0  0  0  0
 22 24  2  0  0  0  0
 23 25  2  0  0  0  0
 23 26  1  0  0  0  0
  1 27  1  0  0  0  0
  2 28  1  0  0  0  0
  2 29  1  0  0  0  0
  3 30  1  0  0  0  0
  3 31  1  0  0  0  0
  4 32  1  0  0  0  0
  5 33  1  0  0  0  0
  5 34  1  0  0  0  0
  9 35  1  0  0  0  0
 10 36  1  0  0  0  0
 11 37  1  0  0  0  0
 14 38  1  0  0  0  0
 17 39  1  0  0  0  0
 19 40  1  0  0  0  0
 21 41  1  0  0  0  0
 22 42  1  0  0  0  0
 24 43  1  0  0  0  0
 25 44  1  0  0  0  0
 26 45  1  0  0  0  0
 26 46  1  0  0  0  0
 26 47  1  0  0  0  0
M  END
> <Name>
13

> <IC50[uM]>
0.006

$$$$
13
  -OEChem-05192314333D
 Structure written by MMmdl.
 47 50  0     1  0  0  0  0  0999 V2000
   -2.2088   12.9419  -10.9697 C   0  0  1  0  0  0  0  0  0  0  0  0
   -2.1904   14.4671  -10.9424 C   0  0  0  0  0  0  0  0  0  0  0  0
   -3.6992   12.5876  -10.8377 C   0  0  0  0  0  0  0  0  0  0  0  0
   -1.6826   12.4744  -12.1795 O   0  0  0  0  0  0  0  0  0  0  0  0
   -3.5107   14.9139  -11.6089 C   0  0  0  0  0  0  0  0  0  0  0  0
   -4.3443   13.7200  -11.5243 N   0  0  0  0  0  0  0  0  0  0  0  0
   -6.3525   12.3601  -12.0338 C   0  0  0  0  0  0  0  0  0  0  0  0
   -6.9727   11.7556  -13.1375 C   0  0  0  0  0  0  0  0  0  0  0  0
   -7.7097   10.5633  -13.0339 C   0  0  0  0  0  0  0  0  0  0  0  0
   -6.5001   11.8056  -10.7491 C   0  0  0  0  0  0  0  0  0  0  0  0
   -6.8506   12.3073  -14.3824 O   0  0  0  0  0  0  0  0  0  0  0  0
   -5.5377   13.6382  -12.2001 C   0  0  0  0  0  0  0  0  0  0  0  0
   -5.9500   14.5444  -12.9177 O   0  0  0  0  0  0  0  0  0  0  0  0
   -7.2308   10.6159  -10.6131 C   0  0  0  0  0  0  0  0  0  0  0  0
   -7.8083   10.0113  -11.7524 C   0  0  0  0  0  0  0  0  0  0  0  0
   -8.4200    8.8675  -11.2880 N   0  0  0  0  0  0  0  0  0  0  0  0
   -8.2847    8.7400   -9.9757 N   0  0  0  0  0  0  0  0  0  0  0  0
   -7.6047    9.7473   -9.5145 C   0  0  0  0  0  0  0  0  0  0  0  0
   -7.3264    9.8951   -8.0245 C   0  0  0  0  0  0  0  0  0  0  0  0
   -5.9604   10.4805   -7.7353 C   0  0  0  0  0  0  0  0  0  0  0  0
   -4.8075    9.7596   -8.0491 C   0  0  0  0  0  0  0  0  0  0  0  0
   -3.4358   11.5809   -7.2415 C   0  0  0  0  0  0  0  0  0  0  0  0
   -4.5835   12.3061   -6.9225 C   0  0  0  0  0  0  0  0  0  0  0  0
   -3.5481   10.3107   -7.8024 C   0  0  0  0  0  0  0  0  0  0  0  0
   -5.8471   11.7541   -7.1666 C   0  0  0  0  0  0  0  0  0  0  0  0
   -4.4650   13.6954   -6.3241 C   0  0  0  0  0  0  0  0  0  0  0  0
   -1.6558   12.5461  -10.1051 H   0  0  0  0  0  0  0  0  0  0  0  0
   -2.1418   14.8314   -9.9056 H   0  0  0  0  0  0  0  0  0  0  0  0
   -1.3273   14.8503  -11.5065 H   0  0  0  0  0  0  0  0  0  0  0  0
   -3.9292   11.6343  -11.3361 H   0  0  0  0  0  0  0  0  0  0  0  0
   -4.0052   12.5329   -9.7825 H   0  0  0  0  0  0  0  0  0  0  0  0
   -1.6986   11.5246  -12.1863 H   0  0  0  0  0  0  0  0  0  0  0  0
   -3.9654   15.7526  -11.0614 H   0  0  0  0  0  0  0  0  0  0  0  0
   -3.3451   15.2065  -12.6563 H   0  0  0  0  0  0  0  0  0  0  0  0
   -8.7298   10.7663  -13.3920 H   0  0  0  0  0  0  0  0  0  0  0  0
   -7.2340    9.8162  -13.6862 H   0  0  0  0  0  0  0  0  0  0  0  0
   -6.0607   12.2852   -9.8870 H   0  0  0  0  0  0  0  0  0  0  0  0
   -8.6485    7.9874   -9.4268 H   0  0  0  0  0  0  0  0  0  0  0  0
   -8.0295    9.6121   -7.2551 H   0  0  0  0  0  0  0  0  0  0  0  0
   -4.8582    8.8181   -7.4825 H   0  0  0  0  0  0  0  0  0  0  0  0
   -4.8529    9.5421   -9.1264 H   0  0  0  0  0  0  0  0  0  0  0  0
   -2.4600   12.0040   -7.0537 H   0  0  0  0  0  0  0  0  0  0  0  0
   -2.6581    9.7501   -8.0474 H   0  0  0  0  0  0  0  0  0  0  0  0
   -6.7366   12.3128   -6.9153 H   0  0  0  0  0  0  0  0  0  0  0  0
   -5.4700   14.1039   -6.1424 H   0  0  0  0  0  0  0  0  0  0  0  0
   -3.9148   13.6392   -5.3732 H   0  0  0  0  0  0  0  0  0  0  0  0
   -3.9239   14.3505   -7.0227 H   0  0  0  0  0  0  0  0  0  0  0  0
  1  2  1  0  0  0  0
  1  3  1  0  0  0  0
  1  4  1  0  0  0  0
  2  5  1  0  0  0  0
  3  6  1  0  0  0  0
  5  6  1  0  0  0  0
  6 12  1  0  0  0  0
  7  8  1  0  0  0  0
  7 10  2  0  0  0  0
  7 12  1  0  0  0  0
  8  9  1  0  0  0  0
  8 11  2  0  0  0  0
  9 15  1  0  0  0  0
 10 14  1  0  0  0  0
 12 13  2  0  0  0  0
 14 15  1  0  0  0  0
 14 18  2  0  0  0  0
 15 16  2  0  0  0  0
 16 17  1  0  0  0  0
 17 18  1  0  0  0  0
 18 19  1  0  0  0  0
 19 20  2  0  0  0  0
 20 21  1  0  0  0  0
 20 25  1  0  0  0  0
 21 24  1  0  0  0  0
 22 23  1  0  0  0  0
 22 24  2  0  0  0  0
 23 25  2  0  0  0  0
 23 26  1  0  0  0  0
  1 27  1  0  0  0  0
  2 28  1  0  0  0  0
  2 29  1  0  0  0  0
  3 30  1  0  0  0  0
  3 31  1  0  0  0  0
  4 32  1  0  0  0  0
  5 33  1  0  0  0  0
  5 34  1  0  0  0  0
  9 35  1  0  0  0  0
  9 36  1  0  0  0  0
 10 37  1  0  0  0  0
 17 38  1  0  0  0  0
 19 39  1  0  0  0  0
 21 40  1  0  0  0  0
 21 41  1  0  0  0  0
 22 42  1  0  0  0  0
 24 43  1  0  0  0  0
 25 44  1  0  0  0  0
 26 45  1  0  0  0  0
 26 46  1  0  0  0  0
 26 47  1  0  0  0  0
M  END
> <Name>
13

> <IC50[uM]>
0.006

$$$$
13
  -OEChem-05192314333D
 Structure written by MMmdl.
 47 50  0     1  0  0  0  0  0999 V2000
   -2.2088   12.9419  -10.9697 C   0  0  1  0  0  0  0  0  0  0  0  0
   -2.1904   14.4671  -10.9424 C   0  0  0  0  0  0  0  0  0  0  0  0
   -3.6992   12.5876  -10.8377 C   0  0  0  0  0  0  0  0  0  0  0  0
   -1.6826   12.4744  -12.1795 O   0  0  0  0  0  0  0  0  0  0  0  0
   -3.5107   14.9139  -11.6089 C   0  0  0  0  0  0  0  0  0  0  0  0
   -4.3443   13.7200  -11.5243 N   0  0  0  0  0  0  0  0  0  0  0  0
   -6.3525   12.3601  -12.0338 C   0  0  0  0  0  0  0  0  0  0  0  0
   -6.9727   11.7556  -13.1375 C   0  0  0  0  0  0  0  0  0  0  0  0
   -7.7097   10.5633  -13.0339 C   0  0  0  0  0  0  0  0  0  0  0  0
   -6.5001   11.8056  -10.7491 C   0  0  0  0  0  0  0  0  0  0  0  0
   -6.8506   12.3073  -14.3824 O   0  0  0  0  0  0  0  0  0  0  0  0
   -5.5377   13.6382  -12.2001 C   0  0  0  0  0  0  0  0  0  0  0  0
   -5.9500   14.5444  -12.9177 O   0  0  0  0  0  0  0  0  0  0  0  0
   -7.2308   10.6159  -10.6131 C   0  0  0  0  0  0  0  0  0  0  0  0
   -7.8083   10.0113  -11.7524 C   0  0  0  0  0  0  0  0  0  0  0  0
   -8.4200    8.8675  -11.2880 N   0  0  0  0  0  0  0  0  0  0  0  0
   -8.2847    8.7400   -9.9757 N   0  0  0  0  0  0  0  0  0  0  0  0
   -7.6047    9.7473   -9.5145 C   0  0  0  0  0  0  0  0  0  0  0  0
   -7.3264    9.8951   -8.0245 C   0  0  0  0  0  0  0  0  0  0  0  0
   -5.9604   10.4805   -7.7353 C   0  0  0  0  0  0  0  0  0  0  0  0
   -4.8075    9.7596   -8.0491 C   0  0  0  0  0  0  0  0  0  0  0  0
   -3.4358   11.5809   -7.2415 C   0  0  0  0  0  0  0  0  0  0  0  0
   -4.5835   12.3061   -6.9225 C   0  0  0  0  0  0  0  0  0  0  0  0
   -3.5481   10.3107   -7.8024 C   0  0  0  0  0  0  0  0  0  0  0  0
   -5.8471   11.7541   -7.1666 C   0  0  0  0  0  0  0  0  0  0  0  0
   -4.4650   13.6954   -6.3241 C   0  0  0  0  0  0  0  0  0  0  0  0
   -1.6558   12.5461  -10.1051 H   0  0  0  0  0  0  0  0  0  0  0  0
   -2.1418   14.8314   -9.9056 H   0  0  0  0  0  0  0  0  0  0  0  0
   -1.3273   14.8503  -11.5065 H   0  0  0  0  0  0  0  0  0  0  0  0
   -3.9292   11.6343  -11.3361 H   0  0  0  0  0  0  0  0  0  0  0  0
   -4.0052   12.5329   -9.7825 H   0  0  0  0  0  0  0  0  0  0  0  0
   -1.6986   11.5246  -12.1863 H   0  0  0  0  0  0  0  0  0  0  0  0
   -3.9654   15.7526  -11.0614 H   0  0  0  0  0  0  0  0  0  0  0  0
   -3.3451   15.2065  -12.6563 H   0  0  0  0  0  0  0  0  0  0  0  0
   -8.7298   10.7663  -13.3920 H   0  0  0  0  0  0  0  0  0  0  0  0
   -7.2340    9.8162  -13.6862 H   0  0  0  0  0  0  0  0  0  0  0  0
   -6.0607   12.2852   -9.8870 H   0  0  0  0  0  0  0  0  0  0  0  0
   -8.9058    8.2145  -11.8690 H   0  0  0  0  0  0  0  0  0  0  0  0
   -8.0295    9.6121   -7.2551 H   0  0  0  0  0  0  0  0  0  0  0  0
   -4.8582    8.8181   -7.4825 H   0  0  0  0  0  0  0  0  0  0  0  0
   -4.8529    9.5421   -9.1264 H   0  0  0  0  0  0  0  0  0  0  0  0
   -2.4600   12.0040   -7.0537 H   0  0  0  0  0  0  0  0  0  0  0  0
   -2.6581    9.7501   -8.0474 H   0  0  0  0  0  0  0  0  0  0  0  0
   -6.7366   12.3128   -6.9153 H   0  0  0  0  0  0  0  0  0  0  0  0
   -5.4700   14.1039   -6.1424 H   0  0  0  0  0  0  0  0  0  0  0  0
   -3.9148   13.6392   -5.3732 H   0  0  0  0  0  0  0  0  0  0  0  0
   -3.9239   14.3505   -7.0227 H   0  0  0  0  0  0  0  0  0  0  0  0
  1  2  1  0  0  0  0
  1  3  1  0  0  0  0
  1  4  1  0  0  0  0
  2  5  1  0  0  0  0
  3  6  1  0  0  0  0
  5  6  1  0  0  0  0
  6 12  1  0  0  0  0
  7  8  1  0  0  0  0
  7 10  2  0  0  0  0
  7 12  1  0  0  0  0
  8  9  1  0  0  0  0
  8 11  2  0  0  0  0
  9 15  1  0  0  0  0
 10 14  1  0  0  0  0
 12 13  2  0  0  0  0
 14 15  2  0  0  0  0
 14 18  1  0  0  0  0
 15 16  1  0  0  0  0
 16 17  1  0  0  0  0
 17 18  2  0  0  0  0
 18 19  1  0  0  0  0
 19 20  2  0  0  0  0
 20 21  1  0  0  0  0
 20 25  1  0  0  0  0
 21 24  1  0  0  0  0
 22 23  1  0  0  0  0
 22 24  2  0  0  0  0
 23 25  2  0  0  0  0
 23 26  1  0  0  0  0
  1 27  1  0  0  0  0
  2 28  1  0  0  0  0
  2 29  1  0  0  0  0
  3 30  1  0  0  0  0
  3 31  1  0  0  0  0
  4 32  1  0  0  0  0
  5 33  1  0  0  0  0
  5 34  1  0  0  0  0
  9 35  1  0  0  0  0
  9 36  1  0  0  0  0
 10 37  1  0  0  0  0
 16 38  1  0  0  0  0
 19 39  1  0  0  0  0
 21 40  1  0  0  0  0
 21 41  1  0  0  0  0
 22 42  1  0  0  0  0
 24 43  1  0  0  0  0
 25 44  1  0  0  0  0
 26 45  1  0  0  0  0
 26 46  1  0  0  0  0
 26 47  1  0  0  0  0
M  END
> <Name>
13

> <IC50[uM]>
0.006

$$$$
13
  -OEChem-05192314333D
 Structure written by MMmdl.
 47 50  0     1  0  0  0  0  0999 V2000
   -2.2088   12.9419  -10.9697 C   0  0  1  0  0  0  0  0  0  0  0  0
   -2.1904   14.4671  -10.9424 C   0  0  0  0  0  0  0  0  0  0  0  0
   -3.6992   12.5876  -10.8377 C   0  0  0  0  0  0  0  0  0  0  0  0
   -1.6826   12.4744  -12.1795 O   0  0  0  0  0  0  0  0  0  0  0  0
   -3.5107   14.9139  -11.6089 C   0  0  0  0  0  0  0  0  0  0  0  0
   -4.3443   13.7200  -11.5243 N   0  0  0  0  0  0  0  0  0  0  0  0
   -6.3525   12.3601  -12.0338 C   0  0  0  0  0  0  0  0  0  0  0  0
   -6.9727   11.7556  -13.1375 C   0  0  0  0  0  0  0  0  0  0  0  0
   -7.7097   10.5633  -13.0339 C   0  0  0  0  0  0  0  0  0  0  0  0
   -6.5001   11.8056  -10.7491 C   0  0  0  0  0  0  0  0  0  0  0  0
   -6.8506   12.3073  -14.3824 O   0  0  0  0  0  0  0  0  0  0  0  0
   -5.5377   13.6382  -12.2001 C   0  0  0  0  0  0  0  0  0  0  0  0
   -5.9500   14.5444  -12.9177 O   0  0  0  0  0  0  0  0  0  0  0  0
   -7.2308   10.6159  -10.6131 C   0  0  0  0  0  0  0  0  0  0  0  0
   -7.8083   10.0113  -11.7524 C   0  0  0  0  0  0  0  0  0  0  0  0
   -8.4200    8.8675  -11.2880 N   0  0  0  0  0  0  0  0  0  0  0  0
   -8.2847    8.7400   -9.9757 N   0  0  0  0  0  0  0  0  0  0  0  0
   -7.6047    9.7473   -9.5145 C   0  0  0  0  0  0  0  0  0  0  0  0
   -7.3264    9.8951   -8.0245 C   0  0  0  0  0  0  0  0  0  0  0  0
   -5.9604   10.4805   -7.7353 C   0  0  0  0  0  0  0  0  0  0  0  0
   -4.8075    9.7596   -8.0491 C   0  0  0  0  0  0  0  0  0  0  0  0
   -3.4358   11.5809   -7.2415 C   0  0  0  0  0  0  0  0  0  0  0  0
   -4.5835   12.3061   -6.9225 C   0  0  0  0  0  0  0  0  0  0  0  0
   -3.5481   10.3107   -7.8024 C   0  0  0  0  0  0  0  0  0  0  0  0
   -5.8471   11.7541   -7.1666 C   0  0  0  0  0  0  0  0  0  0  0  0
   -4.4650   13.6954   -6.3241 C   0  0  0  0  0  0  0  0  0  0  0  0
   -1.6558   12.5461  -10.1051 H   0  0  0  0  0  0  0  0  0  0  0  0
   -2.1418   14.8314   -9.9056 H   0  0  0  0  0  0  0  0  0  0  0  0
   -1.3273   14.8503  -11.5065 H   0  0  0  0  0  0  0  0  0  0  0  0
   -3.9292   11.6343  -11.3361 H   0  0  0  0  0  0  0  0  0  0  0  0
   -4.0052   12.5329   -9.7825 H   0  0  0  0  0  0  0  0  0  0  0  0
   -1.6986   11.5246  -12.1863 H   0  0  0  0  0  0  0  0  0  0  0  0
   -3.9654   15.7526  -11.0614 H   0  0  0  0  0  0  0  0  0  0  0  0
   -3.3451   15.2065  -12.6563 H   0  0  0  0  0  0  0  0  0  0  0  0
   -8.7298   10.7663  -13.3920 H   0  0  0  0  0  0  0  0  0  0  0  0
   -7.2340    9.8162  -13.6862 H   0  0  0  0  0  0  0  0  0  0  0  0
   -6.0607   12.2852   -9.8870 H   0  0  0  0  0  0  0  0  0  0  0  0
   -8.6485    7.9874   -9.4268 H   0  0  0  0  0  0  0  0  0  0  0  0
   -8.0295    9.6121   -7.2551 H   0  0  0  0  0  0  0  0  0  0  0  0
   -4.8892    8.7741   -8.4833 H   0  0  0  0  0  0  0  0  0  0  0  0
   -2.8612   12.1924   -7.9527 H   0  0  0  0  0  0  0  0  0  0  0  0
   -2.8628   11.4670   -6.3094 H   0  0  0  0  0  0  0  0  0  0  0  0
   -2.6581    9.7501   -8.0474 H   0  0  0  0  0  0  0  0  0  0  0  0
   -6.7366   12.3128   -6.9153 H   0  0  0  0  0  0  0  0  0  0  0  0
   -5.4700   14.1039   -6.1424 H   0  0  0  0  0  0  0  0  0  0  0  0
   -3.9148   13.6392   -5.3732 H   0  0  0  0  0  0  0  0  0  0  0  0
   -3.9239   14.3505   -7.0227 H   0  0  0  0  0  0  0  0  0  0  0  0
  1  2  1  0  0  0  0
  1  3  1  0  0  0  0
  1  4  1  0  0  0  0
  2  5  1  0  0  0  0
  3  6  1  0  0  0  0
  5  6  1  0  0  0  0
  6 12  1  0  0  0  0
  7  8  1  0  0  0  0
  7 10  2  0  0  0  0
  7 12  1  0  0  0  0
  8  9  1  0  0  0  0
  8 11  2  0  0  0  0
  9 15  1  0  0  0  0
 10 14  1  0  0  0  0
 12 13  2  0  0  0  0
 14 15  1  0  0  0  0
 14 18  2  0  0  0  0
 15 16  2  0  0  0  0
 16 17  1  0  0  0  0
 17 18  1  0  0  0  0
 18 19  1  0  0  0  0
 19 20  2  0  0  0  0
 20 21  1  0  0  0  0
 20 25  1  0  0  0  0
 21 24  2  0  0  0  0
 22 23  1  0  0  0  0
 22 24  1  0  0  0  0
 23 25  2  0  0  0  0
 23 26  1  0  0  0  0
  1 27  1  0  0  0  0
  2 28  1  0  0  0  0
  2 29  1  0  0  0  0
  3 30  1  0  0  0  0
  3 31  1  0  0  0  0
  4 32  1  0  0  0  0
  5 33  1  0  0  0  0
  5 34  1  0  0  0  0
  9 35  1  0  0  0  0
  9 36  1  0  0  0  0
 10 37  1  0  0  0  0
 17 38  1  0  0  0  0
 19 39  1  0  0  0  0
 21 40  1  0  0  0  0
 22 41  1  0  0  0  0
 22 42  1  0  0  0  0
 24 43  1  0  0  0  0
 25 44  1  0  0  0  0
 26 45  1  0  0  0  0
 26 46  1  0  0  0  0
 26 47  1  0  0  0  0
M  END
> <Name>
13

> <IC50[uM]>
0.006

$$$$
13
  -OEChem-05192314333D
 Structure written by MMmdl.
 47 50  0     1  0  0  0  0  0999 V2000
   -2.2088   12.9419  -10.9697 C   0  0  1  0  0  0  0  0  0  0  0  0
   -2.1904   14.4671  -10.9424 C   0  0  0  0  0  0  0  0  0  0  0  0
   -3.6992   12.5876  -10.8377 C   0  0  0  0  0  0  0  0  0  0  0  0
   -1.6826   12.4744  -12.1795 O   0  0  0  0  0  0  0  0  0  0  0  0
   -3.5107   14.9139  -11.6089 C   0  0  0  0  0  0  0  0  0  0  0  0
   -4.3443   13.7200  -11.5243 N   0  0  0  0  0  0  0  0  0  0  0  0
   -6.3525   12.3601  -12.0338 C   0  0  0  0  0  0  0  0  0  0  0  0
   -6.9727   11.7556  -13.1375 C   0  0  0  0  0  0  0  0  0  0  0  0
   -7.7097   10.5633  -13.0339 C   0  0  0  0  0  0  0  0  0  0  0  0
   -6.5001   11.8056  -10.7491 C   0  0  0  0  0  0  0  0  0  0  0  0
   -6.8506   12.3073  -14.3824 O   0  0  0  0  0  0  0  0  0  0  0  0
   -5.5377   13.6382  -12.2001 C   0  0  0  0  0  0  0  0  0  0  0  0
   -5.9500   14.5444  -12.9177 O   0  0  0  0  0  0  0  0  0  0  0  0
   -7.2308   10.6159  -10.6131 C   0  0  0  0  0  0  0  0  0  0  0  0
   -7.8083   10.0113  -11.7524 C   0  0  0  0  0  0  0  0  0  0  0  0
   -8.4200    8.8675  -11.2880 N   0  0  0  0  0  0  0  0  0  0  0  0
   -8.2847    8.7400   -9.9757 N   0  0  0  0  0  0  0  0  0  0  0  0
   -7.6047    9.7473   -9.5145 C   0  0  0  0  0  0  0  0  0  0  0  0
   -7.3264    9.8951   -8.0245 C   0  0  0  0  0  0  0  0  0  0  0  0
   -5.9604   10.4805   -7.7353 C   0  0  0  0  0  0  0  0  0  0  0  0
   -4.8075    9.7596   -8.0491 C   0  0  0  0  0  0  0  0  0  0  0  0
   -3.4358   11.5809   -7.2415 C   0  0  0  0  0  0  0  0  0  0  0  0
   -4.5835   12.3061   -6.9225 C   0  0  0  0  0  0  0  0  0  0  0  0
   -3.5481   10.3107   -7.8024 C   0  0  0  0  0  0  0  0  0  0  0  0
   -5.8471   11.7541   -7.1666 C   0  0  0  0  0  0  0  0  0  0  0  0
   -4.4650   13.6954   -6.3241 C   0  0  0  0  0  0  0  0  0  0  0  0
   -1.6558   12.5461  -10.1051 H   0  0  0  0  0  0  0  0  0  0  0  0
   -2.1418   14.8314   -9.9056 H   0  0  0  0  0  0  0  0  0  0  0  0
   -1.3273   14.8503  -11.5065 H   0  0  0  0  0  0  0  0  0  0  0  0
   -3.9292   11.6343  -11.3361 H   0  0  0  0  0  0  0  0  0  0  0  0
   -4.0052   12.5329   -9.7825 H   0  0  0  0  0  0  0  0  0  0  0  0
   -1.6986   11.5246  -12.1863 H   0  0  0  0  0  0  0  0  0  0  0  0
   -3.9654   15.7526  -11.0614 H   0  0  0  0  0  0  0  0  0  0  0  0
   -3.3451   15.2065  -12.6563 H   0  0  0  0  0  0  0  0  0  0  0  0
   -8.7298   10.7663  -13.3920 H   0  0  0  0  0  0  0  0  0  0  0  0
   -7.2340    9.8162  -13.6862 H   0  0  0  0  0  0  0  0  0  0  0  0
   -6.0607   12.2852   -9.8870 H   0  0  0  0  0  0  0  0  0  0  0  0
   -8.9058    8.2145  -11.8690 H   0  0  0  0  0  0  0  0  0  0  0  0
   -8.0295    9.6121   -7.2551 H   0  0  0  0  0  0  0  0  0  0  0  0
   -4.8892    8.7741   -8.4833 H   0  0  0  0  0  0  0  0  0  0  0  0
   -2.8612   12.1924   -7.9527 H   0  0  0  0  0  0  0  0  0  0  0  0
   -2.8628   11.4670   -6.3094 H   0  0  0  0  0  0  0  0  0  0  0  0
   -2.6581    9.7501   -8.0474 H   0  0  0  0  0  0  0  0  0  0  0  0
   -6.7366   12.3128   -6.9153 H   0  0  0  0  0  0  0  0  0  0  0  0
   -5.4700   14.1039   -6.1424 H   0  0  0  0  0  0  0  0  0  0  0  0
   -3.9148   13.6392   -5.3732 H   0  0  0  0  0  0  0  0  0  0  0  0
   -3.9239   14.3505   -7.0227 H   0  0  0  0  0  0  0  0  0  0  0  0
  1  2  1  0  0  0  0
  1  3  1  0  0  0  0
  1  4  1  0  0  0  0
  2  5  1  0  0  0  0
  3  6  1  0  0  0  0
  5  6  1  0  0  0  0
  6 12  1  0  0  0  0
  7  8  1  0  0  0  0
  7 10  2  0  0  0  0
  7 12  1  0  0  0  0
  8  9  1  0  0  0  0
  8 11  2  0  0  0  0
  9 15  1  0  0  0  0
 10 14  1  0  0  0  0
 12 13  2  0  0  0  0
 14 15  2  0  0  0  0
 14 18  1  0  0  0  0
 15 16  1  0  0  0  0
 16 17  1  0  0  0  0
 17 18  2  0  0  0  0
 18 19  1  0  0  0  0
 19 20  2  0  0  0  0
 20 21  1  0  0  0  0
 20 25  1  0  0  0  0
 21 24  2  0  0  0  0
 22 23  1  0  0  0  0
 22 24  1  0  0  0  0
 23 25  2  0  0  0  0
 23 26  1  0  0  0  0
  1 27  1  0  0  0  0
  2 28  1  0  0  0  0
  2 29  1  0  0  0  0
  3 30  1  0  0  0  0
  3 31  1  0  0  0  0
  4 32  1  0  0  0  0
  5 33  1  0  0  0  0
  5 34  1  0  0  0  0
  9 35  1  0  0  0  0
  9 36  1  0  0  0  0
 10 37  1  0  0  0  0
 16 38  1  0  0  0  0
 19 39  1  0  0  0  0
 21 40  1  0  0  0  0
 22 41  1  0  0  0  0
 22 42  1  0  0  0  0
 24 43  1  0  0  0  0
 25 44  1  0  0  0  0
 26 45  1  0  0  0  0
 26 46  1  0  0  0  0
 26 47  1  0  0  0  0
M  END
> <Name>
13

> <IC50[uM]>
0.006

$$$$
13
  -OEChem-05192314333D
 Structure written by MMmdl.
 47 50  0     1  0  0  0  0  0999 V2000
   -2.2088   12.9419  -10.9697 C   0  0  1  0  0  0  0  0  0  0  0  0
   -2.1904   14.4671  -10.9424 C   0  0  0  0  0  0  0  0  0  0  0  0
   -3.6992   12.5876  -10.8377 C   0  0  0  0  0  0  0  0  0  0  0  0
   -1.6826   12.4744  -12.1795 O   0  0  0  0  0  0  0  0  0  0  0  0
   -3.5107   14.9139  -11.6089 C   0  0  0  0  0  0  0  0  0  0  0  0
   -4.3443   13.7200  -11.5243 N   0  0  0  0  0  0  0  0  0  0  0  0
   -6.3525   12.3601  -12.0338 C   0  0  0  0  0  0  0  0  0  0  0  0
   -6.9727   11.7556  -13.1375 C   0  0  0  0  0  0  0  0  0  0  0  0
   -7.7097   10.5633  -13.0339 C   0  0  0  0  0  0  0  0  0  0  0  0
   -6.5001   11.8056  -10.7491 C   0  0  0  0  0  0  0  0  0  0  0  0
   -6.8506   12.3073  -14.3824 O   0  0  0  0  0  0  0  0  0  0  0  0
   -5.5377   13.6382  -12.2001 C   0  0  0  0  0  0  0  0  0  0  0  0
   -5.9500   14.5444  -12.9177 O   0  0  0  0  0  0  0  0  0  0  0  0
   -7.2308   10.6159  -10.6131 C   0  0  0  0  0  0  0  0  0  0  0  0
   -7.8083   10.0113  -11.7524 C   0  0  0  0  0  0  0  0  0  0  0  0
   -8.4200    8.8675  -11.2880 N   0  0  0  0  0  0  0  0  0  0  0  0
   -8.2847    8.7400   -9.9757 N   0  0  0  0  0  0  0  0  0  0  0  0
   -7.6047    9.7473   -9.5145 C   0  0  0  0  0  0  0  0  0  0  0  0
   -7.3264    9.8951   -8.0245 C   0  0  0  0  0  0  0  0  0  0  0  0
   -5.9604   10.4805   -7.7353 C   0  0  0  0  0  0  0  0  0  0  0  0
   -4.8075    9.7596   -8.0491 C   0  0  0  0  0  0  0  0  0  0  0  0
   -3.4358   11.5809   -7.2415 C   0  0  0  0  0  0  0  0  0  0  0  0
   -4.5835   12.3061   -6.9225 C   0  0  0  0  0  0  0  0  0  0  0  0
   -3.5481   10.3107   -7.8024 C   0  0  0  0  0  0  0  0  0  0  0  0
   -5.8471   11.7541   -7.1666 C   0  0  0  0  0  0  0  0  0  0  0  0
   -4.4650   13.6954   -6.3241 C   0  0  0  0  0  0  0  0  0  0  0  0
   -1.6558   12.5461  -10.1051 H   0  0  0  0  0  0  0  0  0  0  0  0
   -2.1418   14.8314   -9.9056 H   0  0  0  0  0  0  0  0  0  0  0  0
   -1.3273   14.8503  -11.5065 H   0  0  0  0  0  0  0  0  0  0  0  0
   -3.9292   11.6343  -11.3361 H   0  0  0  0  0  0  0  0  0  0  0  0
   -4.0052   12.5329   -9.7825 H   0  0  0  0  0  0  0  0  0  0  0  0
   -1.6986   11.5246  -12.1863 H   0  0  0  0  0  0  0  0  0  0  0  0
   -3.9654   15.7526  -11.0614 H   0  0  0  0  0  0  0  0  0  0  0  0
   -3.3451   15.2065  -12.6563 H   0  0  0  0  0  0  0  0  0  0  0  0
   -8.7298   10.7663  -13.3920 H   0  0  0  0  0  0  0  0  0  0  0  0
   -7.2340    9.8162  -13.6862 H   0  0  0  0  0  0  0  0  0  0  0  0
   -6.0607   12.2852   -9.8870 H   0  0  0  0  0  0  0  0  0  0  0  0
   -8.6485    7.9874   -9.4268 H   0  0  0  0  0  0  0  0  0  0  0  0
   -8.0295    9.6121   -7.2551 H   0  0  0  0  0  0  0  0  0  0  0  0
   -4.8892    8.7741   -8.4833 H   0  0  0  0  0  0  0  0  0  0  0  0
   -2.4600   12.0040   -7.0537 H   0  0  0  0  0  0  0  0  0  0  0  0
   -2.6581    9.7501   -8.0474 H   0  0  0  0  0  0  0  0  0  0  0  0
   -6.3717   12.4489   -7.8389 H   0  0  0  0  0  0  0  0  0  0  0  0
   -6.3685   11.7163   -6.1988 H   0  0  0  0  0  0  0  0  0  0  0  0
   -5.4700   14.1039   -6.1424 H   0  0  0  0  0  0  0  0  0  0  0  0
   -3.9148   13.6392   -5.3732 H   0  0  0  0  0  0  0  0  0  0  0  0
   -3.9239   14.3505   -7.0227 H   0  0  0  0  0  0  0  0  0  0  0  0
  1  2  1  0  0  0  0
  1  3  1  0  0  0  0
  1  4  1  0  0  0  0
  2  5  1  0  0  0  0
  3  6  1  0  0  0  0
  5  6  1  0  0  0  0
  6 12  1  0  0  0  0
  7  8  1  0  0  0  0
  7 10  2  0  0  0  0
  7 12  1  0  0  0  0
  8  9  1  0  0  0  0
  8 11  2  0  0  0  0
  9 15  1  0  0  0  0
 10 14  1  0  0  0  0
 12 13  2  0  0  0  0
 14 15  1  0  0  0  0
 14 18  2  0  0  0  0
 15 16  2  0  0  0  0
 16 17  1  0  0  0  0
 17 18  1  0  0  0  0
 18 19  1  0  0  0  0
 19 20  2  0  0  0  0
 20 21  1  0  0  0  0
 20 25  1  0  0  0  0
 21 24  2  0  0  0  0
 22 23  2  0  0  0  0
 22 24  1  0  0  0  0
 23 25  1  0  0  0  0
 23 26  1  0  0  0  0
  1 27  1  0  0  0  0
  2 28  1  0  0  0  0
  2 29  1  0  0  0  0
  3 30  1  0  0  0  0
  3 31  1  0  0  0  0
  4 32  1  0  0  0  0
  5 33  1  0  0  0  0
  5 34  1  0  0  0  0
  9 35  1  0  0  0  0
  9 36  1  0  0  0  0
 10 37  1  0  0  0  0
 17 38  1  0  0  0  0
 19 39  1  0  0  0  0
 21 40  1  0  0  0  0
 22 41  1  0  0  0  0
 24 42  1  0  0  0  0
 25 43  1  0  0  0  0
 25 44  1  0  0  0  0
 26 45  1  0  0  0  0
 26 46  1  0  0  0  0
 26 47  1  0  0  0  0
M  END
> <Name>
13

> <IC50[uM]>
0.006

$$$$
13
  -OEChem-05192314333D
 Structure written by MMmdl.
 47 50  0     1  0  0  0  0  0999 V2000
   -2.2088   12.9419  -10.9697 C   0  0  1  0  0  0  0  0  0  0  0  0
   -2.1904   14.4671  -10.9424 C   0  0  0  0  0  0  0  0  0  0  0  0
   -3.6992   12.5876  -10.8377 C   0  0  0  0  0  0  0  0  0  0  0  0
   -1.6826   12.4744  -12.1795 O   0  0  0  0  0  0  0  0  0  0  0  0
   -3.5107   14.9139  -11.6089 C   0  0  0  0  0  0  0  0  0  0  0  0
   -4.3443   13.7200  -11.5243 N   0  0  0  0  0  0  0  0  0  0  0  0
   -6.3525   12.3601  -12.0338 C   0  0  0  0  0  0  0  0  0  0  0  0
   -6.9727   11.7556  -13.1375 C   0  0  0  0  0  0  0  0  0  0  0  0
   -7.7097   10.5633  -13.0339 C   0  0  0  0  0  0  0  0  0  0  0  0
   -6.5001   11.8056  -10.7491 C   0  0  0  0  0  0  0  0  0  0  0  0
   -6.8506   12.3073  -14.3824 O   0  0  0  0  0  0  0  0  0  0  0  0
   -5.5377   13.6382  -12.2001 C   0  0  0  0  0  0  0  0  0  0  0  0
   -5.9500   14.5444  -12.9177 O   0  0  0  0  0  0  0  0  0  0  0  0
   -7.2308   10.6159  -10.6131 C   0  0  0  0  0  0  0  0  0  0  0  0
   -7.8083   10.0113  -11.7524 C   0  0  0  0  0  0  0  0  0  0  0  0
   -8.4200    8.8675  -11.2880 N   0  0  0  0  0  0  0  0  0  0  0  0
   -8.2847    8.7400   -9.9757 N   0  0  0  0  0  0  0  0  0  0  0  0
   -7.6047    9.7473   -9.5145 C   0  0  0  0  0  0  0  0  0  0  0  0
   -7.3264    9.8951   -8.0245 C   0  0  0  0  0  0  0  0  0  0  0  0
   -5.9604   10.4805   -7.7353 C   0  0  0  0  0  0  0  0  0  0  0  0
   -4.8075    9.7596   -8.0491 C   0  0  0  0  0  0  0  0  0  0  0  0
   -3.4358   11.5809   -7.2415 C   0  0  0  0  0  0  0  0  0  0  0  0
   -4.5835   12.3061   -6.9225 C   0  0  0  0  0  0  0  0  0  0  0  0
   -3.5481   10.3107   -7.8024 C   0  0  0  0  0  0  0  0  0  0  0  0
   -5.8471   11.7541   -7.1666 C   0  0  0  0  0  0  0  0  0  0  0  0
   -4.4650   13.6954   -6.3241 C   0  0  0  0  0  0  0  0  0  0  0  0
   -1.6558   12.5461  -10.1051 H   0  0  0  0  0  0  0  0  0  0  0  0
   -2.1418   14.8314   -9.9056 H   0  0  0  0  0  0  0  0  0  0  0  0
   -1.3273   14.8503  -11.5065 H   0  0  0  0  0  0  0  0  0  0  0  0
   -3.9292   11.6343  -11.3361 H   0  0  0  0  0  0  0  0  0  0  0  0
   -4.0052   12.5329   -9.7825 H   0  0  0  0  0  0  0  0  0  0  0  0
   -1.6986   11.5246  -12.1863 H   0  0  0  0  0  0  0  0  0  0  0  0
   -3.9654   15.7526  -11.0614 H   0  0  0  0  0  0  0  0  0  0  0  0
   -3.3451   15.2065  -12.6563 H   0  0  0  0  0  0  0  0  0  0  0  0
   -8.7298   10.7663  -13.3920 H   0  0  0  0  0  0  0  0  0  0  0  0
   -7.2340    9.8162  -13.6862 H   0  0  0  0  0  0  0  0  0  0  0  0
   -6.0607   12.2852   -9.8870 H   0  0  0  0  0  0  0  0  0  0  0  0
   -8.9058    8.2145  -11.8690 H   0  0  0  0  0  0  0  0  0  0  0  0
   -8.0295    9.6121   -7.2551 H   0  0  0  0  0  0  0  0  0  0  0  0
   -4.8892    8.7741   -8.4833 H   0  0  0  0  0  0  0  0  0  0  0  0
   -2.4600   12.0040   -7.0537 H   0  0  0  0  0  0  0  0  0  0  0  0
   -2.6581    9.7501   -8.0474 H   0  0  0  0  0  0  0  0  0  0  0  0
   -6.3717   12.4489   -7.8389 H   0  0  0  0  0  0  0  0  0  0  0  0
   -6.3685   11.7163   -6.1988 H   0  0  0  0  0  0  0  0  0  0  0  0
   -5.4700   14.1039   -6.1424 H   0  0  0  0  0  0  0  0  0  0  0  0
   -3.9148   13.6392   -5.3732 H   0  0  0  0  0  0  0  0  0  0  0  0
   -3.9239   14.3505   -7.0227 H   0  0  0  0  0  0  0  0  0  0  0  0
  1  2  1  0  0  0  0
  1  3  1  0  0  0  0
  1  4  1  0  0  0  0
  2  5  1  0  0  0  0
  3  6  1  0  0  0  0
  5  6  1  0  0  0  0
  6 12  1  0  0  0  0
  7  8  1  0  0  0  0
  7 10  2  0  0  0  0
  7 12  1  0  0  0  0
  8  9  1  0  0  0  0
  8 11  2  0  0  0  0
  9 15  1  0  0  0  0
 10 14  1  0  0  0  0
 12 13  2  0  0  0  0
 14 15  2  0  0  0  0
 14 18  1  0  0  0  0
 15 16  1  0  0  0  0
 16 17  1  0  0  0  0
 17 18  2  0  0  0  0
 18 19  1  0  0  0  0
 19 20  2  0  0  0  0
 20 21  1  0  0  0  0
 20 25  1  0  0  0  0
 21 24  2  0  0  0  0
 22 23  2  0  0  0  0
 22 24  1  0  0  0  0
 23 25  1  0  0  0  0
 23 26  1  0  0  0  0
  1 27  1  0  0  0  0
  2 28  1  0  0  0  0
  2 29  1  0  0  0  0
  3 30  1  0  0  0  0
  3 31  1  0  0  0  0
  4 32  1  0  0  0  0
  5 33  1  0  0  0  0
  5 34  1  0  0  0  0
  9 35  1  0  0  0  0
  9 36  1  0  0  0  0
 10 37  1  0  0  0  0
 16 38  1  0  0  0  0
 19 39  1  0  0  0  0
 21 40  1  0  0  0  0
 22 41  1  0  0  0  0
 24 42  1  0  0  0  0
 25 43  1  0  0  0  0
 25 44  1  0  0  0  0
 26 45  1  0  0  0  0
 26 46  1  0  0  0  0
 26 47  1  0  0  0  0
M  END
> <Name>
13

> <IC50[uM]>
0.006

$$$$
13
  -OEChem-05192314333D
 Structure written by MMmdl.
 47 50  0     1  0  0  0  0  0999 V2000
   -2.2088   12.9419  -10.9697 C   0  0  1  0  0  0  0  0  0  0  0  0
   -2.1904   14.4671  -10.9424 C   0  0  0  0  0  0  0  0  0  0  0  0
   -3.6992   12.5876  -10.8377 C   0  0  0  0  0  0  0  0  0  0  0  0
   -1.6826   12.4744  -12.1795 O   0  0  0  0  0  0  0  0  0  0  0  0
   -3.5107   14.9139  -11.6089 C   0  0  0  0  0  0  0  0  0  0  0  0
   -4.3443   13.7200  -11.5243 N   0  0  0  0  0  0  0  0  0  0  0  0
   -6.3525   12.3601  -12.0338 C   0  0  0  0  0  0  0  0  0  0  0  0
   -6.9727   11.7556  -13.1375 C   0  0  0  0  0  0  0  0  0  0  0  0
   -7.7097   10.5633  -13.0339 C   0  0  0  0  0  0  0  0  0  0  0  0
   -6.5001   11.8056  -10.7491 C   0  0  0  0  0  0  0  0  0  0  0  0
   -6.8506   12.3073  -14.3824 O   0  0  0  0  0  0  0  0  0  0  0  0
   -5.5377   13.6382  -12.2001 C   0  0  0  0  0  0  0  0  0  0  0  0
   -5.9500   14.5444  -12.9177 O   0  0  0  0  0  0  0  0  0  0  0  0
   -7.2308   10.6159  -10.6131 C   0  0  0  0  0  0  0  0  0  0  0  0
   -7.8083   10.0113  -11.7524 C   0  0  0  0  0  0  0  0  0  0  0  0
   -8.4200    8.8675  -11.2880 N   0  0  0  0  0  0  0  0  0  0  0  0
   -8.2847    8.7400   -9.9757 N   0  0  0  0  0  0  0  0  0  0  0  0
   -7.6047    9.7473   -9.5145 C   0  0  0  0  0  0  0  0  0  0  0  0
   -7.3264    9.8951   -8.0245 C   0  0  0  0  0  0  0  0  0  0  0  0
   -5.9604   10.4805   -7.7353 C   0  0  0  0  0  0  0  0  0  0  0  0
   -4.8075    9.7596   -8.0491 C   0  0  0  0  0  0  0  0  0  0  0  0
   -3.4358   11.5809   -7.2415 C   0  0  0  0  0  0  0  0  0  0  0  0
   -4.5835   12.3061   -6.9225 C   0  0  0  0  0  0  0  0  0  0  0  0
   -3.5481   10.3107   -7.8024 C   0  0  0  0  0  0  0  0  0  0  0  0
   -5.8471   11.7541   -7.1666 C   0  0  0  0  0  0  0  0  0  0  0  0
   -4.4650   13.6954   -6.3241 C   0  0  0  0  0  0  0  0  0  0  0  0
   -1.6558   12.5461  -10.1051 H   0  0  0  0  0  0  0  0  0  0  0  0
   -2.1418   14.8314   -9.9056 H   0  0  0  0  0  0  0  0  0  0  0  0
   -1.3273   14.8503  -11.5065 H   0  0  0  0  0  0  0  0  0  0  0  0
   -3.9292   11.6343  -11.3361 H   0  0  0  0  0  0  0  0  0  0  0  0
   -4.0052   12.5329   -9.7825 H   0  0  0  0  0  0  0  0  0  0  0  0
   -1.6986   11.5246  -12.1863 H   0  0  0  0  0  0  0  0  0  0  0  0
   -3.9654   15.7526  -11.0614 H   0  0  0  0  0  0  0  0  0  0  0  0
   -3.3451   15.2065  -12.6563 H   0  0  0  0  0  0  0  0  0  0  0  0
   -5.4494   11.7544  -12.1998 H   0  0  0  0  0  0  0  0  0  0  0  0
   -8.1726   10.1006  -13.8930 H   0  0  0  0  0  0  0  0  0  0  0  0
   -6.0607   12.2852   -9.8870 H   0  0  0  0  0  0  0  0  0  0  0  0
   -8.9058    8.2145  -11.8690 H   0  0  0  0  0  0  0  0  0  0  0  0
   -8.0295    9.6121   -7.2551 H   0  0  0  0  0  0  0  0  0  0  0  0
   -4.8582    8.8181   -7.4825 H   0  0  0  0  0  0  0  0  0  0  0  0
   -4.8529    9.5421   -9.1264 H   0  0  0  0  0  0  0  0  0  0  0  0
   -2.4600   12.0040   -7.0537 H   0  0  0  0  0  0  0  0  0  0  0  0
   -2.6581    9.7501   -8.0474 H   0  0  0  0  0  0  0  0  0  0  0  0
   -6.7366   12.3128   -6.9153 H   0  0  0  0  0  0  0  0  0  0  0  0
   -5.4700   14.1039   -6.1424 H   0  0  0  0  0  0  0  0  0  0  0  0
   -3.9148   13.6392   -5.3732 H   0  0  0  0  0  0  0  0  0  0  0  0
   -3.9239   14.3505   -7.0227 H   0  0  0  0  0  0  0  0  0  0  0  0
  1  2  1  0  0  0  0
  1  3  1  0  0  0  0
  1  4  1  0  0  0  0
  2  5  1  0  0  0  0
  3  6  1  0  0  0  0
  5  6  1  0  0  0  0
  6 12  1  0  0  0  0
  7  8  1  0  0  0  0
  7 10  1  0  0  0  0
  7 12  1  0  0  0  0
  8  9  1  0  0  0  0
  8 11  2  0  0  0  0
  9 15  2  0  0  0  0
 10 14  2  0  0  0  0
 12 13  2  0  0  0  0
 14 15  1  0  0  0  0
 14 18  1  0  0  0  0
 15 16  1  0  0  0  0
 16 17  1  0  0  0  0
 17 18  2  0  0  0  0
 18 19  1  0  0  0  0
 19 20  2  0  0  0  0
 20 21  1  0  0  0  0
 20 25  1  0  0  0  0
 21 24  1  0  0  0  0
 22 23  1  0  0  0  0
 22 24  2  0  0  0  0
 23 25  2  0  0  0  0
 23 26  1  0  0  0  0
  1 27  1  0  0  0  0
  2 28  1  0  0  0  0
  2 29  1  0  0  0  0
  3 30  1  0  0  0  0
  3 31  1  0  0  0  0
  4 32  1  0  0  0  0
  5 33  1  0  0  0  0
  5 34  1  0  0  0  0
  7 35  1  0  0  0  0
  9 36  1  0  0  0  0
 10 37  1  0  0  0  0
 16 38  1  0  0  0  0
 19 39  1  0  0  0  0
 21 40  1  0  0  0  0
 21 41  1  0  0  0  0
 22 42  1  0  0  0  0
 24 43  1  0  0  0  0
 25 44  1  0  0  0  0
 26 45  1  0  0  0  0
 26 46  1  0  0  0  0
 26 47  1  0  0  0  0
M  END
> <Name>
13

> <IC50[uM]>
0.006

$$$$
13
  -OEChem-05192314333D
 Structure written by MMmdl.
 47 50  0     1  0  0  0  0  0999 V2000
   -2.2088   12.9419  -10.9697 C   0  0  1  0  0  0  0  0  0  0  0  0
   -2.1904   14.4671  -10.9424 C   0  0  0  0  0  0  0  0  0  0  0  0
   -3.6992   12.5876  -10.8377 C   0  0  0  0  0  0  0  0  0  0  0  0
   -1.6826   12.4744  -12.1795 O   0  0  0  0  0  0  0  0  0  0  0  0
   -3.5107   14.9139  -11.6089 C   0  0  0  0  0  0  0  0  0  0  0  0
   -4.3443   13.7200  -11.5243 N   0  0  0  0  0  0  0  0  0  0  0  0
   -6.3525   12.3601  -12.0338 C   0  0  0  0  0  0  0  0  0  0  0  0
   -6.9727   11.7556  -13.1375 C   0  0  0  0  0  0  0  0  0  0  0  0
   -7.7097   10.5633  -13.0339 C   0  0  0  0  0  0  0  0  0  0  0  0
   -6.5001   11.8056  -10.7491 C   0  0  0  0  0  0  0  0  0  0  0  0
   -6.8506   12.3073  -14.3824 O   0  0  0  0  0  0  0  0  0  0  0  0
   -5.5377   13.6382  -12.2001 C   0  0  0  0  0  0  0  0  0  0  0  0
   -5.9500   14.5444  -12.9177 O   0  0  0  0  0  0  0  0  0  0  0  0
   -7.2308   10.6159  -10.6131 C   0  0  0  0  0  0  0  0  0  0  0  0
   -7.8083   10.0113  -11.7524 C   0  0  0  0  0  0  0  0  0  0  0  0
   -8.4200    8.8675  -11.2880 N   0  0  0  0  0  0  0  0  0  0  0  0
   -8.2847    8.7400   -9.9757 N   0  0  0  0  0  0  0  0  0  0  0  0
   -7.6047    9.7473   -9.5145 C   0  0  0  0  0  0  0  0  0  0  0  0
   -7.3264    9.8951   -8.0245 C   0  0  0  0  0  0  0  0  0  0  0  0
   -5.9604   10.4805   -7.7353 C   0  0  0  0  0  0  0  0  0  0  0  0
   -4.8075    9.7596   -8.0491 C   0  0  0  0  0  0  0  0  0  0  0  0
   -3.4358   11.5809   -7.2415 C   0  0  0  0  0  0  0  0  0  0  0  0
   -4.5835   12.3061   -6.9225 C   0  0  0  0  0  0  0  0  0  0  0  0
   -3.5481   10.3107   -7.8024 C   0  0  0  0  0  0  0  0  0  0  0  0
   -5.8471   11.7541   -7.1666 C   0  0  0  0  0  0  0  0  0  0  0  0
   -4.4650   13.6954   -6.3241 C   0  0  0  0  0  0  0  0  0  0  0  0
   -1.6558   12.5461  -10.1051 H   0  0  0  0  0  0  0  0  0  0  0  0
   -2.1418   14.8314   -9.9056 H   0  0  0  0  0  0  0  0  0  0  0  0
   -1.3273   14.8503  -11.5065 H   0  0  0  0  0  0  0  0  0  0  0  0
   -3.9292   11.6343  -11.3361 H   0  0  0  0  0  0  0  0  0  0  0  0
   -4.0052   12.5329   -9.7825 H   0  0  0  0  0  0  0  0  0  0  0  0
   -1.6986   11.5246  -12.1863 H   0  0  0  0  0  0  0  0  0  0  0  0
   -3.9654   15.7526  -11.0614 H   0  0  0  0  0  0  0  0  0  0  0  0
   -3.3451   15.2065  -12.6563 H   0  0  0  0  0  0  0  0  0  0  0  0
   -5.4494   11.7544  -12.1998 H   0  0  0  0  0  0  0  0  0  0  0  0
   -8.1726   10.1006  -13.8930 H   0  0  0  0  0  0  0  0  0  0  0  0
   -6.0607   12.2852   -9.8870 H   0  0  0  0  0  0  0  0  0  0  0  0
   -8.9058    8.2145  -11.8690 H   0  0  0  0  0  0  0  0  0  0  0  0
   -8.0295    9.6121   -7.2551 H   0  0  0  0  0  0  0  0  0  0  0  0
   -4.8892    8.7741   -8.4833 H   0  0  0  0  0  0  0  0  0  0  0  0
   -2.8612   12.1924   -7.9527 H   0  0  0  0  0  0  0  0  0  0  0  0
   -2.8628   11.4670   -6.3094 H   0  0  0  0  0  0  0  0  0  0  0  0
   -2.6581    9.7501   -8.0474 H   0  0  0  0  0  0  0  0  0  0  0  0
   -6.7366   12.3128   -6.9153 H   0  0  0  0  0  0  0  0  0  0  0  0
   -5.4700   14.1039   -6.1424 H   0  0  0  0  0  0  0  0  0  0  0  0
   -3.9148   13.6392   -5.3732 H   0  0  0  0  0  0  0  0  0  0  0  0
   -3.9239   14.3505   -7.0227 H   0  0  0  0  0  0  0  0  0  0  0  0
  1  2  1  0  0  0  0
  1  3  1  0  0  0  0
  1  4  1  0  0  0  0
  2  5  1  0  0  0  0
  3  6  1  0  0  0  0
  5  6  1  0  0  0  0
  6 12  1  0  0  0  0
  7  8  1  0  0  0  0
  7 10  1  0  0  0  0
  7 12  1  0  0  0  0
  8  9  1  0  0  0  0
  8 11  2  0  0  0  0
  9 15  2  0  0  0  0
 10 14  2  0  0  0  0
 12 13  2  0  0  0  0
 14 15  1  0  0  0  0
 14 18  1  0  0  0  0
 15 16  1  0  0  0  0
 16 17  1  0  0  0  0
 17 18  2  0  0  0  0
 18 19  1  0  0  0  0
 19 20  2  0  0  0  0
 20 21  1  0  0  0  0
 20 25  1  0  0  0  0
 21 24  2  0  0  0  0
 22 23  1  0  0  0  0
 22 24  1  0  0  0  0
 23 25  2  0  0  0  0
 23 26  1  0  0  0  0
  1 27  1  0  0  0  0
  2 28  1  0  0  0  0
  2 29  1  0  0  0  0
  3 30  1  0  0  0  0
  3 31  1  0  0  0  0
  4 32  1  0  0  0  0
  5 33  1  0  0  0  0
  5 34  1  0  0  0  0
  7 35  1  0  0  0  0
  9 36  1  0  0  0  0
 10 37  1  0  0  0  0
 16 38  1  0  0  0  0
 19 39  1  0  0  0  0
 21 40  1  0  0  0  0
 22 41  1  0  0  0  0
 22 42  1  0  0  0  0
 24 43  1  0  0  0  0
 25 44  1  0  0  0  0
 26 45  1  0  0  0  0
 26 46  1  0  0  0  0
 26 47  1  0  0  0  0
M  END
> <Name>
13

> <IC50[uM]>
0.006

$$$$
13
  -OEChem-05192314333D
 Structure written by MMmdl.
 47 50  0     1  0  0  0  0  0999 V2000
   -2.2088   12.9419  -10.9697 C   0  0  1  0  0  0  0  0  0  0  0  0
   -2.1904   14.4671  -10.9424 C   0  0  0  0  0  0  0  0  0  0  0  0
   -3.6992   12.5876  -10.8377 C   0  0  0  0  0  0  0  0  0  0  0  0
   -1.6826   12.4744  -12.1795 O   0  0  0  0  0  0  0  0  0  0  0  0
   -3.5107   14.9139  -11.6089 C   0  0  0  0  0  0  0  0  0  0  0  0
   -4.3443   13.7200  -11.5243 N   0  0  0  0  0  0  0  0  0  0  0  0
   -6.3525   12.3601  -12.0338 C   0  0  0  0  0  0  0  0  0  0  0  0
   -6.9727   11.7556  -13.1375 C   0  0  0  0  0  0  0  0  0  0  0  0
   -7.7097   10.5633  -13.0339 C   0  0  0  0  0  0  0  0  0  0  0  0
   -6.5001   11.8056  -10.7491 C   0  0  0  0  0  0  0  0  0  0  0  0
   -6.8506   12.3073  -14.3824 O   0  0  0  0  0  0  0  0  0  0  0  0
   -5.5377   13.6382  -12.2001 C   0  0  0  0  0  0  0  0  0  0  0  0
   -5.9500   14.5444  -12.9177 O   0  0  0  0  0  0  0  0  0  0  0  0
   -7.2308   10.6159  -10.6131 C   0  0  0  0  0  0  0  0  0  0  0  0
   -7.8083   10.0113  -11.7524 C   0  0  0  0  0  0  0  0  0  0  0  0
   -8.4200    8.8675  -11.2880 N   0  0  0  0  0  0  0  0  0  0  0  0
   -8.2847    8.7400   -9.9757 N   0  0  0  0  0  0  0  0  0  0  0  0
   -7.6047    9.7473   -9.5145 C   0  0  0  0  0  0  0  0  0  0  0  0
   -7.3264    9.8951   -8.0245 C   0  0  0  0  0  0  0  0  0  0  0  0
   -5.9604   10.4805   -7.7353 C   0  0  0  0  0  0  0  0  0  0  0  0
   -4.8075    9.7596   -8.0491 C   0  0  0  0  0  0  0  0  0  0  0  0
   -3.4358   11.5809   -7.2415 C   0  0  0  0  0  0  0  0  0  0  0  0
   -4.5835   12.3061   -6.9225 C   0  0  0  0  0  0  0  0  0  0  0  0
   -3.5481   10.3107   -7.8024 C   0  0  0  0  0  0  0  0  0  0  0  0
   -5.8471   11.7541   -7.1666 C   0  0  0  0  0  0  0  0  0  0  0  0
   -4.4650   13.6954   -6.3241 C   0  0  0  0  0  0  0  0  0  0  0  0
   -1.6558   12.5461  -10.1051 H   0  0  0  0  0  0  0  0  0  0  0  0
   -2.1418   14.8314   -9.9056 H   0  0  0  0  0  0  0  0  0  0  0  0
   -1.3273   14.8503  -11.5065 H   0  0  0  0  0  0  0  0  0  0  0  0
   -3.9292   11.6343  -11.3361 H   0  0  0  0  0  0  0  0  0  0  0  0
   -4.0052   12.5329   -9.7825 H   0  0  0  0  0  0  0  0  0  0  0  0
   -1.6986   11.5246  -12.1863 H   0  0  0  0  0  0  0  0  0  0  0  0
   -3.9654   15.7526  -11.0614 H   0  0  0  0  0  0  0  0  0  0  0  0
   -3.3451   15.2065  -12.6563 H   0  0  0  0  0  0  0  0  0  0  0  0
   -5.4494   11.7544  -12.1998 H   0  0  0  0  0  0  0  0  0  0  0  0
   -8.1726   10.1006  -13.8930 H   0  0  0  0  0  0  0  0  0  0  0  0
   -6.0607   12.2852   -9.8870 H   0  0  0  0  0  0  0  0  0  0  0  0
   -8.9058    8.2145  -11.8690 H   0  0  0  0  0  0  0  0  0  0  0  0
   -8.0295    9.6121   -7.2551 H   0  0  0  0  0  0  0  0  0  0  0  0
   -4.8892    8.7741   -8.4833 H   0  0  0  0  0  0  0  0  0  0  0  0
   -2.4600   12.0040   -7.0537 H   0  0  0  0  0  0  0  0  0  0  0  0
   -2.6581    9.7501   -8.0474 H   0  0  0  0  0  0  0  0  0  0  0  0
   -6.3717   12.4489   -7.8389 H   0  0  0  0  0  0  0  0  0  0  0  0
   -6.3685   11.7163   -6.1988 H   0  0  0  0  0  0  0  0  0  0  0  0
   -5.4700   14.1039   -6.1424 H   0  0  0  0  0  0  0  0  0  0  0  0
   -3.9148   13.6392   -5.3732 H   0  0  0  0  0  0  0  0  0  0  0  0
   -3.9239   14.3505   -7.0227 H   0  0  0  0  0  0  0  0  0  0  0  0
  1  2  1  0  0  0  0
  1  3  1  0  0  0  0
  1  4  1  0  0  0  0
  2  5  1  0  0  0  0
  3  6  1  0  0  0  0
  5  6  1  0  0  0  0
  6 12  1  0  0  0  0
  7  8  1  0  0  0  0
  7 10  1  0  0  0  0
  7 12  1  0  0  0  0
  8  9  1  0  0  0  0
  8 11  2  0  0  0  0
  9 15  2  0  0  0  0
 10 14  2  0  0  0  0
 12 13  2  0  0  0  0
 14 15  1  0  0  0  0
 14 18  1  0  0  0  0
 15 16  1  0  0  0  0
 16 17  1  0  0  0  0
 17 18  2  0  0  0  0
 18 19  1  0  0  0  0
 19 20  2  0  0  0  0
 20 21  1  0  0  0  0
 20 25  1  0  0  0  0
 21 24  2  0  0  0  0
 22 23  2  0  0  0  0
 22 24  1  0  0  0  0
 23 25  1  0  0  0  0
 23 26  1  0  0  0  0
  1 27  1  0  0  0  0
  2 28  1  0  0  0  0
  2 29  1  0  0  0  0
  3 30  1  0  0  0  0
  3 31  1  0  0  0  0
  4 32  1  0  0  0  0
  5 33  1  0  0  0  0
  5 34  1  0  0  0  0
  7 35  1  0  0  0  0
  9 36  1  0  0  0  0
 10 37  1  0  0  0  0
 16 38  1  0  0  0  0
 19 39  1  0  0  0  0
 21 40  1  0  0  0  0
 22 41  1  0  0  0  0
 24 42  1  0  0  0  0
 25 43  1  0  0  0  0
 25 44  1  0  0  0  0
 26 45  1  0  0  0  0
 26 46  1  0  0  0  0
 26 47  1  0  0  0  0
M  END
> <Name>
13

> <IC50[uM]>
0.006

$$$$
13
  -OEChem-05192314333D
 Structure written by MMmdl.
 47 50  0     1  0  0  0  0  0999 V2000
   -2.2088   12.9419  -10.9697 C   0  0  1  0  0  0  0  0  0  0  0  0
   -2.1904   14.4671  -10.9424 C   0  0  0  0  0  0  0  0  0  0  0  0
   -3.6992   12.5876  -10.8377 C   0  0  0  0  0  0  0  0  0  0  0  0
   -1.6826   12.4744  -12.1795 O   0  0  0  0  0  0  0  0  0  0  0  0
   -3.5107   14.9139  -11.6089 C   0  0  0  0  0  0  0  0  0  0  0  0
   -4.3443   13.7200  -11.5243 N   0  0  0  0  0  0  0  0  0  0  0  0
   -6.3525   12.3601  -12.0338 C   0  0  0  0  0  0  0  0  0  0  0  0
   -6.9727   11.7556  -13.1375 C   0  0  0  0  0  0  0  0  0  0  0  0
   -7.7097   10.5633  -13.0339 C   0  0  0  0  0  0  0  0  0  0  0  0
   -6.5001   11.8056  -10.7491 C   0  0  0  0  0  0  0  0  0  0  0  0
   -6.8506   12.3073  -14.3824 O   0  0  0  0  0  0  0  0  0  0  0  0
   -5.5377   13.6382  -12.2001 C   0  0  0  0  0  0  0  0  0  0  0  0
   -5.9500   14.5444  -12.9177 O   0  0  0  0  0  0  0  0  0  0  0  0
   -7.2308   10.6159  -10.6131 C   0  0  0  0  0  0  0  0  0  0  0  0
   -7.8083   10.0113  -11.7524 C   0  0  0  0  0  0  0  0  0  0  0  0
   -8.4200    8.8675  -11.2880 N   0  0  0  0  0  0  0  0  0  0  0  0
   -8.2847    8.7400   -9.9757 N   0  0  0  0  0  0  0  0  0  0  0  0
   -7.6047    9.7473   -9.5145 C   0  0  0  0  0  0  0  0  0  0  0  0
   -7.3264    9.8951   -8.0245 C   0  0  0  0  0  0  0  0  0  0  0  0
   -5.9604   10.4805   -7.7353 C   0  0  0  0  0  0  0  0  0  0  0  0
   -4.8075    9.7596   -8.0491 C   0  0  0  0  0  0  0  0  0  0  0  0
   -3.4358   11.5809   -7.2415 C   0  0  0  0  0  0  0  0  0  0  0  0
   -4.5835   12.3061   -6.9225 C   0  0  0  0  0  0  0  0  0  0  0  0
   -3.5481   10.3107   -7.8024 C   0  0  0  0  0  0  0  0  0  0  0  0
   -5.8471   11.7541   -7.1666 C   0  0  0  0  0  0  0  0  0  0  0  0
   -4.4650   13.6954   -6.3241 C   0  0  0  0  0  0  0  0  0  0  0  0
   -1.6558   12.5461  -10.1051 H   0  0  0  0  0  0  0  0  0  0  0  0
   -2.1418   14.8314   -9.9056 H   0  0  0  0  0  0  0  0  0  0  0  0
   -1.3273   14.8503  -11.5065 H   0  0  0  0  0  0  0  0  0  0  0  0
   -3.9292   11.6343  -11.3361 H   0  0  0  0  0  0  0  0  0  0  0  0
   -4.0052   12.5329   -9.7825 H   0  0  0  0  0  0  0  0  0  0  0  0
   -1.6986   11.5246  -12.1863 H   0  0  0  0  0  0  0  0  0  0  0  0
   -3.9654   15.7526  -11.0614 H   0  0  0  0  0  0  0  0  0  0  0  0
   -3.3451   15.2065  -12.6563 H   0  0  0  0  0  0  0  0  0  0  0  0
   -8.7298   10.7663  -13.3920 H   0  0  0  0  0  0  0  0  0  0  0  0
   -7.2340    9.8162  -13.6862 H   0  0  0  0  0  0  0  0  0  0  0  0
   -6.0607   12.2852   -9.8870 H   0  0  0  0  0  0  0  0  0  0  0  0
   -6.5242   13.1961  -14.3048 H   0  0  0  0  0  0  0  0  0  0  0  0
   -8.0295    9.6121   -7.2551 H   0  0  0  0  0  0  0  0  0  0  0  0
   -4.8582    8.8181   -7.4825 H   0  0  0  0  0  0  0  0  0  0  0  0
   -4.8529    9.5421   -9.1264 H   0  0  0  0  0  0  0  0  0  0  0  0
   -2.4600   12.0040   -7.0537 H   0  0  0  0  0  0  0  0  0  0  0  0
   -2.6581    9.7501   -8.0474 H   0  0  0  0  0  0  0  0  0  0  0  0
   -6.7366   12.3128   -6.9153 H   0  0  0  0  0  0  0  0  0  0  0  0
   -5.4700   14.1039   -6.1424 H   0  0  0  0  0  0  0  0  0  0  0  0
   -3.9148   13.6392   -5.3732 H   0  0  0  0  0  0  0  0  0  0  0  0
   -3.9239   14.3505   -7.0227 H   0  0  0  0  0  0  0  0  0  0  0  0
  1  2  1  0  0  0  0
  1  3  1  0  0  0  0
  1  4  1  0  0  0  0
  2  5  1  0  0  0  0
  3  6  1  0  0  0  0
  5  6  1  0  0  0  0
  6 12  1  0  0  0  0
  7  8  2  0  0  0  0
  7 10  1  0  0  0  0
  7 12  1  0  0  0  0
  8  9  1  0  0  0  0
  8 11  1  0  0  0  0
  9 15  1  0  0  0  0
 10 14  2  0  0  0  0
 12 13  2  0  0  0  0
 14 15  1  0  0  0  0
 14 18  1  0  0  0  0
 15 16  2  0  0  0  0
 16 17  1  0  0  0  0
 17 18  2  0  0  0  0
 18 19  1  0  0  0  0
 19 20  2  0  0  0  0
 20 21  1  0  0  0  0
 20 25  1  0  0  0  0
 21 24  1  0  0  0  0
 22 23  1  0  0  0  0
 22 24  2  0  0  0  0
 23 25  2  0  0  0  0
 23 26  1  0  0  0  0
  1 27  1  0  0  0  0
  2 28  1  0  0  0  0
  2 29  1  0  0  0  0
  3 30  1  0  0  0  0
  3 31  1  0  0  0  0
  4 32  1  0  0  0  0
  5 33  1  0  0  0  0
  5 34  1  0  0  0  0
  9 35  1  0  0  0  0
  9 36  1  0  0  0  0
 10 37  1  0  0  0  0
 11 38  1  0  0  0  0
 19 39  1  0  0  0  0
 21 40  1  0  0  0  0
 21 41  1  0  0  0  0
 22 42  1  0  0  0  0
 24 43  1  0  0  0  0
 25 44  1  0  0  0  0
 26 45  1  0  0  0  0
 26 46  1  0  0  0  0
 26 47  1  0  0  0  0
M  END
> <Name>
13

> <IC50[uM]>
0.006

$$$$
13
  -OEChem-05192314333D
 Structure written by MMmdl.
 47 50  0     1  0  0  0  0  0999 V2000
   -2.2088   12.9419  -10.9697 C   0  0  1  0  0  0  0  0  0  0  0  0
   -2.1904   14.4671  -10.9424 C   0  0  0  0  0  0  0  0  0  0  0  0
   -3.6992   12.5876  -10.8377 C   0  0  0  0  0  0  0  0  0  0  0  0
   -1.6826   12.4744  -12.1795 O   0  0  0  0  0  0  0  0  0  0  0  0
   -3.5107   14.9139  -11.6089 C   0  0  0  0  0  0  0  0  0  0  0  0
   -4.3443   13.7200  -11.5243 N   0  0  0  0  0  0  0  0  0  0  0  0
   -6.3525   12.3601  -12.0338 C   0  0  0  0  0  0  0  0  0  0  0  0
   -6.9727   11.7556  -13.1375 C   0  0  0  0  0  0  0  0  0  0  0  0
   -7.7097   10.5633  -13.0339 C   0  0  0  0  0  0  0  0  0  0  0  0
   -6.5001   11.8056  -10.7491 C   0  0  0  0  0  0  0  0  0  0  0  0
   -6.8506   12.3073  -14.3824 O   0  0  0  0  0  0  0  0  0  0  0  0
   -5.5377   13.6382  -12.2001 C   0  0  0  0  0  0  0  0  0  0  0  0
   -5.9500   14.5444  -12.9177 O   0  0  0  0  0  0  0  0  0  0  0  0
   -7.2308   10.6159  -10.6131 C   0  0  0  0  0  0  0  0  0  0  0  0
   -7.8083   10.0113  -11.7524 C   0  0  0  0  0  0  0  0  0  0  0  0
   -8.4200    8.8675  -11.2880 N   0  0  0  0  0  0  0  0  0  0  0  0
   -8.2847    8.7400   -9.9757 N   0  0  0  0  0  0  0  0  0  0  0  0
   -7.6047    9.7473   -9.5145 C   0  0  0  0  0  0  0  0  0  0  0  0
   -7.3264    9.8951   -8.0245 C   0  0  0  0  0  0  0  0  0  0  0  0
   -5.9604   10.4805   -7.7353 C   0  0  0  0  0  0  0  0  0  0  0  0
   -4.8075    9.7596   -8.0491 C   0  0  0  0  0  0  0  0  0  0  0  0
   -3.4358   11.5809   -7.2415 C   0  0  0  0  0  0  0  0  0  0  0  0
   -4.5835   12.3061   -6.9225 C   0  0  0  0  0  0  0  0  0  0  0  0
   -3.5481   10.3107   -7.8024 C   0  0  0  0  0  0  0  0  0  0  0  0
   -5.8471   11.7541   -7.1666 C   0  0  0  0  0  0  0  0  0  0  0  0
   -4.4650   13.6954   -6.3241 C   0  0  0  0  0  0  0  0  0  0  0  0
   -1.6558   12.5461  -10.1051 H   0  0  0  0  0  0  0  0  0  0  0  0
   -2.1418   14.8314   -9.9056 H   0  0  0  0  0  0  0  0  0  0  0  0
   -1.3273   14.8503  -11.5065 H   0  0  0  0  0  0  0  0  0  0  0  0
   -3.9292   11.6343  -11.3361 H   0  0  0  0  0  0  0  0  0  0  0  0
   -4.0052   12.5329   -9.7825 H   0  0  0  0  0  0  0  0  0  0  0  0
   -1.6986   11.5246  -12.1863 H   0  0  0  0  0  0  0  0  0  0  0  0
   -3.9654   15.7526  -11.0614 H   0  0  0  0  0  0  0  0  0  0  0  0
   -3.3451   15.2065  -12.6563 H   0  0  0  0  0  0  0  0  0  0  0  0
   -8.7298   10.7663  -13.3920 H   0  0  0  0  0  0  0  0  0  0  0  0
   -7.2340    9.8162  -13.6862 H   0  0  0  0  0  0  0  0  0  0  0  0
   -6.0607   12.2852   -9.8870 H   0  0  0  0  0  0  0  0  0  0  0  0
   -6.5242   13.1961  -14.3048 H   0  0  0  0  0  0  0  0  0  0  0  0
   -8.0295    9.6121   -7.2551 H   0  0  0  0  0  0  0  0  0  0  0  0
   -4.8892    8.7741   -8.4833 H   0  0  0  0  0  0  0  0  0  0  0  0
   -2.8612   12.1924   -7.9527 H   0  0  0  0  0  0  0  0  0  0  0  0
   -2.8628   11.4670   -6.3094 H   0  0  0  0  0  0  0  0  0  0  0  0
   -2.6581    9.7501   -8.0474 H   0  0  0  0  0  0  0  0  0  0  0  0
   -6.7366   12.3128   -6.9153 H   0  0  0  0  0  0  0  0  0  0  0  0
   -5.4700   14.1039   -6.1424 H   0  0  0  0  0  0  0  0  0  0  0  0
   -3.9148   13.6392   -5.3732 H   0  0  0  0  0  0  0  0  0  0  0  0
   -3.9239   14.3505   -7.0227 H   0  0  0  0  0  0  0  0  0  0  0  0
  1  2  1  0  0  0  0
  1  3  1  0  0  0  0
  1  4  1  0  0  0  0
  2  5  1  0  0  0  0
  3  6  1  0  0  0  0
  5  6  1  0  0  0  0
  6 12  1  0  0  0  0
  7  8  2  0  0  0  0
  7 10  1  0  0  0  0
  7 12  1  0  0  0  0
  8  9  1  0  0  0  0
  8 11  1  0  0  0  0
  9 15  1  0  0  0  0
 10 14  2  0  0  0  0
 12 13  2  0  0  0  0
 14 15  1  0  0  0  0
 14 18  1  0  0  0  0
 15 16  2  0  0  0  0
 16 17  1  0  0  0  0
 17 18  2  0  0  0  0
 18 19  1  0  0  0  0
 19 20  2  0  0  0  0
 20 21  1  0  0  0  0
 20 25  1  0  0  0  0
 21 24  2  0  0  0  0
 22 23  1  0  0  0  0
 22 24  1  0  0  0  0
 23 25  2  0  0  0  0
 23 26  1  0  0  0  0
  1 27  1  0  0  0  0
  2 28  1  0  0  0  0
  2 29  1  0  0  0  0
  3 30  1  0  0  0  0
  3 31  1  0  0  0  0
  4 32  1  0  0  0  0
  5 33  1  0  0  0  0
  5 34  1  0  0  0  0
  9 35  1  0  0  0  0
  9 36  1  0  0  0  0
 10 37  1  0  0  0  0
 11 38  1  0  0  0  0
 19 39  1  0  0  0  0
 21 40  1  0  0  0  0
 22 41  1  0  0  0  0
 22 42  1  0  0  0  0
 24 43  1  0  0  0  0
 25 44  1  0  0  0  0
 26 45  1  0  0  0  0
 26 46  1  0  0  0  0
 26 47  1  0  0  0  0
M  END
> <Name>
13

> <IC50[uM]>
0.006

$$$$
13
  -OEChem-05192314333D
 Structure written by MMmdl.
 47 50  0     1  0  0  0  0  0999 V2000
   -2.2088   12.9419  -10.9697 C   0  0  1  0  0  0  0  0  0  0  0  0
   -2.1904   14.4671  -10.9424 C   0  0  0  0  0  0  0  0  0  0  0  0
   -3.6992   12.5876  -10.8377 C   0  0  0  0  0  0  0  0  0  0  0  0
   -1.6826   12.4744  -12.1795 O   0  0  0  0  0  0  0  0  0  0  0  0
   -3.5107   14.9139  -11.6089 C   0  0  0  0  0  0  0  0  0  0  0  0
   -4.3443   13.7200  -11.5243 N   0  0  0  0  0  0  0  0  0  0  0  0
   -6.3525   12.3601  -12.0338 C   0  0  0  0  0  0  0  0  0  0  0  0
   -6.9727   11.7556  -13.1375 C   0  0  0  0  0  0  0  0  0  0  0  0
   -7.7097   10.5633  -13.0339 C   0  0  0  0  0  0  0  0  0  0  0  0
   -6.5001   11.8056  -10.7491 C   0  0  0  0  0  0  0  0  0  0  0  0
   -6.8506   12.3073  -14.3824 O   0  0  0  0  0  0  0  0  0  0  0  0
   -5.5377   13.6382  -12.2001 C   0  0  0  0  0  0  0  0  0  0  0  0
   -5.9500   14.5444  -12.9177 O   0  0  0  0  0  0  0  0  0  0  0  0
   -7.2308   10.6159  -10.6131 C   0  0  0  0  0  0  0  0  0  0  0  0
   -7.8083   10.0113  -11.7524 C   0  0  0  0  0  0  0  0  0  0  0  0
   -8.4200    8.8675  -11.2880 N   0  0  0  0  0  0  0  0  0  0  0  0
   -8.2847    8.7400   -9.9757 N   0  0  0  0  0  0  0  0  0  0  0  0
   -7.6047    9.7473   -9.5145 C   0  0  0  0  0  0  0  0  0  0  0  0
   -7.3264    9.8951   -8.0245 C   0  0  0  0  0  0  0  0  0  0  0  0
   -5.9604   10.4805   -7.7353 C   0  0  0  0  0  0  0  0  0  0  0  0
   -4.8075    9.7596   -8.0491 C   0  0  0  0  0  0  0  0  0  0  0  0
   -3.4358   11.5809   -7.2415 C   0  0  0  0  0  0  0  0  0  0  0  0
   -4.5835   12.3061   -6.9225 C   0  0  0  0  0  0  0  0  0  0  0  0
   -3.5481   10.3107   -7.8024 C   0  0  0  0  0  0  0  0  0  0  0  0
   -5.8471   11.7541   -7.1666 C   0  0  0  0  0  0  0  0  0  0  0  0
   -4.4650   13.6954   -6.3241 C   0  0  0  0  0  0  0  0  0  0  0  0
   -1.6558   12.5461  -10.1051 H   0  0  0  0  0  0  0  0  0  0  0  0
   -2.1418   14.8314   -9.9056 H   0  0  0  0  0  0  0  0  0  0  0  0
   -1.3273   14.8503  -11.5065 H   0  0  0  0  0  0  0  0  0  0  0  0
   -3.9292   11.6343  -11.3361 H   0  0  0  0  0  0  0  0  0  0  0  0
   -4.0052   12.5329   -9.7825 H   0  0  0  0  0  0  0  0  0  0  0  0
   -1.6986   11.5246  -12.1863 H   0  0  0  0  0  0  0  0  0  0  0  0
   -3.9654   15.7526  -11.0614 H   0  0  0  0  0  0  0  0  0  0  0  0
   -3.3451   15.2065  -12.6563 H   0  0  0  0  0  0  0  0  0  0  0  0
   -8.7298   10.7663  -13.3920 H   0  0  0  0  0  0  0  0  0  0  0  0
   -7.2340    9.8162  -13.6862 H   0  0  0  0  0  0  0  0  0  0  0  0
   -6.0607   12.2852   -9.8870 H   0  0  0  0  0  0  0  0  0  0  0  0
   -6.5242   13.1961  -14.3048 H   0  0  0  0  0  0  0  0  0  0  0  0
   -8.0295    9.6121   -7.2551 H   0  0  0  0  0  0  0  0  0  0  0  0
   -4.8892    8.7741   -8.4833 H   0  0  0  0  0  0  0  0  0  0  0  0
   -2.4600   12.0040   -7.0537 H   0  0  0  0  0  0  0  0  0  0  0  0
   -2.6581    9.7501   -8.0474 H   0  0  0  0  0  0  0  0  0  0  0  0
   -6.3717   12.4489   -7.8389 H   0  0  0  0  0  0  0  0  0  0  0  0
   -6.3685   11.7163   -6.1988 H   0  0  0  0  0  0  0  0  0  0  0  0
   -5.4700   14.1039   -6.1424 H   0  0  0  0  0  0  0  0  0  0  0  0
   -3.9148   13.6392   -5.3732 H   0  0  0  0  0  0  0  0  0  0  0  0
   -3.9239   14.3505   -7.0227 H   0  0  0  0  0  0  0  0  0  0  0  0
  1  2  1  0  0  0  0
  1  3  1  0  0  0  0
  1  4  1  0  0  0  0
  2  5  1  0  0  0  0
  3  6  1  0  0  0  0
  5  6  1  0  0  0  0
  6 12  1  0  0  0  0
  7  8  2  0  0  0  0
  7 10  1  0  0  0  0
  7 12  1  0  0  0  0
  8  9  1  0  0  0  0
  8 11  1  0  0  0  0
  9 15  1  0  0  0  0
 10 14  2  0  0  0  0
 12 13  2  0  0  0  0
 14 15  1  0  0  0  0
 14 18  1  0  0  0  0
 15 16  2  0  0  0  0
 16 17  1  0  0  0  0
 17 18  2  0  0  0  0
 18 19  1  0  0  0  0
 19 20  2  0  0  0  0
 20 21  1  0  0  0  0
 20 25  1  0  0  0  0
 21 24  2  0  0  0  0
 22 23  2  0  0  0  0
 22 24  1  0  0  0  0
 23 25  1  0  0  0  0
 23 26  1  0  0  0  0
  1 27  1  0  0  0  0
  2 28  1  0  0  0  0
  2 29  1  0  0  0  0
  3 30  1  0  0  0  0
  3 31  1  0  0  0  0
  4 32  1  0  0  0  0
  5 33  1  0  0  0  0
  5 34  1  0  0  0  0
  9 35  1  0  0  0  0
  9 36  1  0  0  0  0
 10 37  1  0  0  0  0
 11 38  1  0  0  0  0
 19 39  1  0  0  0  0
 21 40  1  0  0  0  0
 22 41  1  0  0  0  0
 24 42  1  0  0  0  0
 25 43  1  0  0  0  0
 25 44  1  0  0  0  0
 26 45  1  0  0  0  0
 26 46  1  0  0  0  0
 26 47  1  0  0  0  0
M  END
> <Name>
13

> <IC50[uM]>
0.006

$$$$
13
  -OEChem-05192314333D
 Structure written by MMmdl.
 47 50  0     1  0  0  0  0  0999 V2000
   -2.2088   12.9419  -10.9697 C   0  0  1  0  0  0  0  0  0  0  0  0
   -2.1904   14.4671  -10.9424 C   0  0  0  0  0  0  0  0  0  0  0  0
   -3.6992   12.5876  -10.8377 C   0  0  0  0  0  0  0  0  0  0  0  0
   -1.6826   12.4744  -12.1795 O   0  0  0  0  0  0  0  0  0  0  0  0
   -3.5107   14.9139  -11.6089 C   0  0  0  0  0  0  0  0  0  0  0  0
   -4.3443   13.7200  -11.5243 N   0  0  0  0  0  0  0  0  0  0  0  0
   -6.3525   12.3601  -12.0338 C   0  0  0  0  0  0  0  0  0  0  0  0
   -6.9727   11.7556  -13.1375 C   0  0  0  0  0  0  0  0  0  0  0  0
   -7.7097   10.5633  -13.0339 C   0  0  0  0  0  0  0  0  0  0  0  0
   -6.5001   11.8056  -10.7491 C   0  0  0  0  0  0  0  0  0  0  0  0
   -6.8506   12.3073  -14.3824 O   0  0  0  0  0  0  0  0  0  0  0  0
   -5.5377   13.6382  -12.2001 C   0  0  0  0  0  0  0  0  0  0  0  0
   -5.9500   14.5444  -12.9177 O   0  0  0  0  0  0  0  0  0  0  0  0
   -7.2308   10.6159  -10.6131 C   0  0  0  0  0  0  0  0  0  0  0  0
   -7.8083   10.0113  -11.7524 C   0  0  0  0  0  0  0  0  0  0  0  0
   -8.4200    8.8675  -11.2880 N   0  0  0  0  0  0  0  0  0  0  0  0
   -8.2847    8.7400   -9.9757 N   0  0  0  0  0  0  0  0  0  0  0  0
   -7.6047    9.7473   -9.5145 C   0  0  0  0  0  0  0  0  0  0  0  0
   -7.3264    9.8951   -8.0245 C   0  0  0  0  0  0  0  0  0  0  0  0
   -5.9604   10.4805   -7.7353 C   0  0  0  0  0  0  0  0  0  0  0  0
   -4.8075    9.7596   -8.0491 C   0  0  0  0  0  0  0  0  0  0  0  0
   -3.4358   11.5809   -7.2415 C   0  0  0  0  0  0  0  0  0  0  0  0
   -4.5835   12.3061   -6.9225 C   0  0  0  0  0  0  0  0  0  0  0  0
   -3.5481   10.3107   -7.8024 C   0  0  0  0  0  0  0  0  0  0  0  0
   -5.8471   11.7541   -7.1666 C   0  0  0  0  0  0  0  0  0  0  0  0
   -4.4650   13.6954   -6.3241 C   0  0  0  0  0  0  0  0  0  0  0  0
   -1.6558   12.5461  -10.1051 H   0  0  0  0  0  0  0  0  0  0  0  0
   -2.1418   14.8314   -9.9056 H   0  0  0  0  0  0  0  0  0  0  0  0
   -1.3273   14.8503  -11.5065 H   0  0  0  0  0  0  0  0  0  0  0  0
   -3.9292   11.6343  -11.3361 H   0  0  0  0  0  0  0  0  0  0  0  0
   -4.0052   12.5329   -9.7825 H   0  0  0  0  0  0  0  0  0  0  0  0
   -1.6986   11.5246  -12.1863 H   0  0  0  0  0  0  0  0  0  0  0  0
   -3.9654   15.7526  -11.0614 H   0  0  0  0  0  0  0  0  0  0  0  0
   -3.3451   15.2065  -12.6563 H   0  0  0  0  0  0  0  0  0  0  0  0
   -5.4494   11.7544  -12.1998 H   0  0  0  0  0  0  0  0  0  0  0  0
   -8.7298   10.7663  -13.3920 H   0  0  0  0  0  0  0  0  0  0  0  0
   -7.2340    9.8162  -13.6862 H   0  0  0  0  0  0  0  0  0  0  0  0
   -6.0607   12.2852   -9.8870 H   0  0  0  0  0  0  0  0  0  0  0  0
   -8.0295    9.6121   -7.2551 H   0  0  0  0  0  0  0  0  0  0  0  0
   -4.8582    8.8181   -7.4825 H   0  0  0  0  0  0  0  0  0  0  0  0
   -4.8529    9.5421   -9.1264 H   0  0  0  0  0  0  0  0  0  0  0  0
   -2.4600   12.0040   -7.0537 H   0  0  0  0  0  0  0  0  0  0  0  0
   -2.6581    9.7501   -8.0474 H   0  0  0  0  0  0  0  0  0  0  0  0
   -6.7366   12.3128   -6.9153 H   0  0  0  0  0  0  0  0  0  0  0  0
   -5.4700   14.1039   -6.1424 H   0  0  0  0  0  0  0  0  0  0  0  0
   -3.9148   13.6392   -5.3732 H   0  0  0  0  0  0  0  0  0  0  0  0
   -3.9239   14.3505   -7.0227 H   0  0  0  0  0  0  0  0  0  0  0  0
  1  2  1  0  0  0  0
  1  3  1  0  0  0  0
  1  4  1  0  0  0  0
  2  5  1  0  0  0  0
  3  6  1  0  0  0  0
  5  6  1  0  0  0  0
  6 12  1  0  0  0  0
  7  8  1  0  0  0  0
  7 10  1  0  0  0  0
  7 12  1  0  0  0  0
  8  9  1  0  0  0  0
  8 11  2  0  0  0  0
  9 15  1  0  0  0  0
 10 14  2  0  0  0  0
 12 13  2  0  0  0  0
 14 15  1  0  0  0  0
 14 18  1  0  0  0  0
 15 16  2  0  0  0  0
 16 17  1  0  0  0  0
 17 18  2  0  0  0  0
 18 19  1  0  0  0  0
 19 20  2  0  0  0  0
 20 21  1  0  0  0  0
 20 25  1  0  0  0  0
 21 24  1  0  0  0  0
 22 23  1  0  0  0  0
 22 24  2  0  0  0  0
 23 25  2  0  0  0  0
 23 26  1  0  0  0  0
  1 27  1  0  0  0  0
  2 28  1  0  0  0  0
  2 29  1  0  0  0  0
  3 30  1  0  0  0  0
  3 31  1  0  0  0  0
  4 32  1  0  0  0  0
  5 33  1  0  0  0  0
  5 34  1  0  0  0  0
  7 35  1  0  0  0  0
  9 36  1  0  0  0  0
  9 37  1  0  0  0  0
 10 38  1  0  0  0  0
 19 39  1  0  0  0  0
 21 40  1  0  0  0  0
 21 41  1  0  0  0  0
 22 42  1  0  0  0  0
 24 43  1  0  0  0  0
 25 44  1  0  0  0  0
 26 45  1  0  0  0  0
 26 46  1  0  0  0  0
 26 47  1  0  0  0  0
M  END
> <Name>
13

> <IC50[uM]>
0.006

$$$$
13
  -OEChem-05192314333D
 Structure written by MMmdl.
 47 50  0     1  0  0  0  0  0999 V2000
   -2.2088   12.9419  -10.9697 C   0  0  1  0  0  0  0  0  0  0  0  0
   -2.1904   14.4671  -10.9424 C   0  0  0  0  0  0  0  0  0  0  0  0
   -3.6992   12.5876  -10.8377 C   0  0  0  0  0  0  0  0  0  0  0  0
   -1.6826   12.4744  -12.1795 O   0  0  0  0  0  0  0  0  0  0  0  0
   -3.5107   14.9139  -11.6089 C   0  0  0  0  0  0  0  0  0  0  0  0
   -4.3443   13.7200  -11.5243 N   0  0  0  0  0  0  0  0  0  0  0  0
   -6.3525   12.3601  -12.0338 C   0  0  0  0  0  0  0  0  0  0  0  0
   -6.9727   11.7556  -13.1375 C   0  0  0  0  0  0  0  0  0  0  0  0
   -7.7097   10.5633  -13.0339 C   0  0  0  0  0  0  0  0  0  0  0  0
   -6.5001   11.8056  -10.7491 C   0  0  0  0  0  0  0  0  0  0  0  0
   -6.8506   12.3073  -14.3824 O   0  0  0  0  0  0  0  0  0  0  0  0
   -5.5377   13.6382  -12.2001 C   0  0  0  0  0  0  0  0  0  0  0  0
   -5.9500   14.5444  -12.9177 O   0  0  0  0  0  0  0  0  0  0  0  0
   -7.2308   10.6159  -10.6131 C   0  0  0  0  0  0  0  0  0  0  0  0
   -7.8083   10.0113  -11.7524 C   0  0  0  0  0  0  0  0  0  0  0  0
   -8.4200    8.8675  -11.2880 N   0  0  0  0  0  0  0  0  0  0  0  0
   -8.2847    8.7400   -9.9757 N   0  0  0  0  0  0  0  0  0  0  0  0
   -7.6047    9.7473   -9.5145 C   0  0  0  0  0  0  0  0  0  0  0  0
   -7.3264    9.8951   -8.0245 C   0  0  0  0  0  0  0  0  0  0  0  0
   -5.9604   10.4805   -7.7353 C   0  0  0  0  0  0  0  0  0  0  0  0
   -4.8075    9.7596   -8.0491 C   0  0  0  0  0  0  0  0  0  0  0  0
   -3.4358   11.5809   -7.2415 C   0  0  0  0  0  0  0  0  0  0  0  0
   -4.5835   12.3061   -6.9225 C   0  0  0  0  0  0  0  0  0  0  0  0
   -3.5481   10.3107   -7.8024 C   0  0  0  0  0  0  0  0  0  0  0  0
   -5.8471   11.7541   -7.1666 C   0  0  0  0  0  0  0  0  0  0  0  0
   -4.4650   13.6954   -6.3241 C   0  0  0  0  0  0  0  0  0  0  0  0
   -1.6558   12.5461  -10.1051 H   0  0  0  0  0  0  0  0  0  0  0  0
   -2.1418   14.8314   -9.9056 H   0  0  0  0  0  0  0  0  0  0  0  0
   -1.3273   14.8503  -11.5065 H   0  0  0  0  0  0  0  0  0  0  0  0
   -3.9292   11.6343  -11.3361 H   0  0  0  0  0  0  0  0  0  0  0  0
   -4.0052   12.5329   -9.7825 H   0  0  0  0  0  0  0  0  0  0  0  0
   -1.6986   11.5246  -12.1863 H   0  0  0  0  0  0  0  0  0  0  0  0
   -3.9654   15.7526  -11.0614 H   0  0  0  0  0  0  0  0  0  0  0  0
   -3.3451   15.2065  -12.6563 H   0  0  0  0  0  0  0  0  0  0  0  0
   -8.7298   10.7663  -13.3920 H   0  0  0  0  0  0  0  0  0  0  0  0
   -7.2340    9.8162  -13.6862 H   0  0  0  0  0  0  0  0  0  0  0  0
   -6.0607   12.2852   -9.8870 H   0  0  0  0  0  0  0  0  0  0  0  0
   -6.3117   10.0311  -10.7657 H   0  0  0  0  0  0  0  0  0  0  0  0
   -8.0295    9.6121   -7.2551 H   0  0  0  0  0  0  0  0  0  0  0  0
   -4.8582    8.8181   -7.4825 H   0  0  0  0  0  0  0  0  0  0  0  0
   -4.8529    9.5421   -9.1264 H   0  0  0  0  0  0  0  0  0  0  0  0
   -2.4600   12.0040   -7.0537 H   0  0  0  0  0  0  0  0  0  0  0  0
   -2.6581    9.7501   -8.0474 H   0  0  0  0  0  0  0  0  0  0  0  0
   -6.7366   12.3128   -6.9153 H   0  0  0  0  0  0  0  0  0  0  0  0
   -5.4700   14.1039   -6.1424 H   0  0  0  0  0  0  0  0  0  0  0  0
   -3.9148   13.6392   -5.3732 H   0  0  0  0  0  0  0  0  0  0  0  0
   -3.9239   14.3505   -7.0227 H   0  0  0  0  0  0  0  0  0  0  0  0
  1  2  1  0  0  0  0
  1  3  1  0  0  0  0
  1  4  1  0  0  0  0
  2  5  1  0  0  0  0
  3  6  1  0  0  0  0
  5  6  1  0  0  0  0
  6 12  1  0  0  0  0
  7  8  1  0  0  0  0
  7 10  2  0  0  0  0
  7 12  1  0  0  0  0
  8  9  1  0  0  0  0
  8 11  2  0  0  0  0
  9 15  1  0  0  0  0
 10 14  1  0  0  0  0
 12 13  2  0  0  0  0
 14 15  1  0  0  0  0
 14 18  1  0  0  0  0
 15 16  2  0  0  0  0
 16 17  1  0  0  0  0
 17 18  2  0  0  0  0
 18 19  1  0  0  0  0
 19 20  2  0  0  0  0
 20 21  1  0  0  0  0
 20 25  1  0  0  0  0
 21 24  1  0  0  0  0
 22 23  1  0  0  0  0
 22 24  2  0  0  0  0
 23 25  2  0  0  0  0
 23 26  1  0  0  0  0
  1 27  1  0  0  0  0
  2 28  1  0  0  0  0
  2 29  1  0  0  0  0
  3 30  1  0  0  0  0
  3 31  1  0  0  0  0
  4 32  1  0  0  0  0
  5 33  1  0  0  0  0
  5 34  1  0  0  0  0
  9 35  1  0  0  0  0
  9 36  1  0  0  0  0
 10 37  1  0  0  0  0
 14 38  1  0  0  0  0
 19 39  1  0  0  0  0
 21 40  1  0  0  0  0
 21 41  1  0  0  0  0
 22 42  1  0  0  0  0
 24 43  1  0  0  0  0
 25 44  1  0  0  0  0
 26 45  1  0  0  0  0
 26 46  1  0  0  0  0
 26 47  1  0  0  0  0
M  END
> <Name>
13

> <IC50[uM]>
0.006

$$$$
13
  -OEChem-05192314333D
 Structure written by MMmdl.
 47 50  0     1  0  0  0  0  0999 V2000
   -2.2088   12.9419  -10.9697 C   0  0  1  0  0  0  0  0  0  0  0  0
   -2.1904   14.4671  -10.9424 C   0  0  0  0  0  0  0  0  0  0  0  0
   -3.6992   12.5876  -10.8377 C   0  0  0  0  0  0  0  0  0  0  0  0
   -1.6826   12.4744  -12.1795 O   0  0  0  0  0  0  0  0  0  0  0  0
   -3.5107   14.9139  -11.6089 C   0  0  0  0  0  0  0  0  0  0  0  0
   -4.3443   13.7200  -11.5243 N   0  0  0  0  0  0  0  0  0  0  0  0
   -6.3525   12.3601  -12.0338 C   0  0  0  0  0  0  0  0  0  0  0  0
   -6.9727   11.7556  -13.1375 C   0  0  0  0  0  0  0  0  0  0  0  0
   -7.7097   10.5633  -13.0339 C   0  0  0  0  0  0  0  0  0  0  0  0
   -6.5001   11.8056  -10.7491 C   0  0  0  0  0  0  0  0  0  0  0  0
   -6.8506   12.3073  -14.3824 O   0  0  0  0  0  0  0  0  0  0  0  0
   -5.5377   13.6382  -12.2001 C   0  0  0  0  0  0  0  0  0  0  0  0
   -5.9500   14.5444  -12.9177 O   0  0  0  0  0  0  0  0  0  0  0  0
   -7.2308   10.6159  -10.6131 C   0  0  0  0  0  0  0  0  0  0  0  0
   -7.8083   10.0113  -11.7524 C   0  0  0  0  0  0  0  0  0  0  0  0
   -8.4200    8.8675  -11.2880 N   0  0  0  0  0  0  0  0  0  0  0  0
   -8.2847    8.7400   -9.9757 N   0  0  0  0  0  0  0  0  0  0  0  0
   -7.6047    9.7473   -9.5145 C   0  0  0  0  0  0  0  0  0  0  0  0
   -7.3264    9.8951   -8.0245 C   0  0  0  0  0  0  0  0  0  0  0  0
   -5.9604   10.4805   -7.7353 C   0  0  0  0  0  0  0  0  0  0  0  0
   -4.8075    9.7596   -8.0491 C   0  0  0  0  0  0  0  0  0  0  0  0
   -3.4358   11.5809   -7.2415 C   0  0  0  0  0  0  0  0  0  0  0  0
   -4.5835   12.3061   -6.9225 C   0  0  0  0  0  0  0  0  0  0  0  0
   -3.5481   10.3107   -7.8024 C   0  0  0  0  0  0  0  0  0  0  0  0
   -5.8471   11.7541   -7.1666 C   0  0  0  0  0  0  0  0  0  0  0  0
   -4.4650   13.6954   -6.3241 C   0  0  0  0  0  0  0  0  0  0  0  0
   -1.6558   12.5461  -10.1051 H   0  0  0  0  0  0  0  0  0  0  0  0
   -2.1418   14.8314   -9.9056 H   0  0  0  0  0  0  0  0  0  0  0  0
   -1.3273   14.8503  -11.5065 H   0  0  0  0  0  0  0  0  0  0  0  0
   -3.9292   11.6343  -11.3361 H   0  0  0  0  0  0  0  0  0  0  0  0
   -4.0052   12.5329   -9.7825 H   0  0  0  0  0  0  0  0  0  0  0  0
   -1.6986   11.5246  -12.1863 H   0  0  0  0  0  0  0  0  0  0  0  0
   -3.9654   15.7526  -11.0614 H   0  0  0  0  0  0  0  0  0  0  0  0
   -3.3451   15.2065  -12.6563 H   0  0  0  0  0  0  0  0  0  0  0  0
   -5.4494   11.7544  -12.1998 H   0  0  0  0  0  0  0  0  0  0  0  0
   -8.7298   10.7663  -13.3920 H   0  0  0  0  0  0  0  0  0  0  0  0
   -7.2340    9.8162  -13.6862 H   0  0  0  0  0  0  0  0  0  0  0  0
   -6.0607   12.2852   -9.8870 H   0  0  0  0  0  0  0  0  0  0  0  0
   -8.0295    9.6121   -7.2551 H   0  0  0  0  0  0  0  0  0  0  0  0
   -4.8892    8.7741   -8.4833 H   0  0  0  0  0  0  0  0  0  0  0  0
   -2.8612   12.1924   -7.9527 H   0  0  0  0  0  0  0  0  0  0  0  0
   -2.8628   11.4670   -6.3094 H   0  0  0  0  0  0  0  0  0  0  0  0
   -2.6581    9.7501   -8.0474 H   0  0  0  0  0  0  0  0  0  0  0  0
   -6.7366   12.3128   -6.9153 H   0  0  0  0  0  0  0  0  0  0  0  0
   -5.4700   14.1039   -6.1424 H   0  0  0  0  0  0  0  0  0  0  0  0
   -3.9148   13.6392   -5.3732 H   0  0  0  0  0  0  0  0  0  0  0  0
   -3.9239   14.3505   -7.0227 H   0  0  0  0  0  0  0  0  0  0  0  0
  1  2  1  0  0  0  0
  1  3  1  0  0  0  0
  1  4  1  0  0  0  0
  2  5  1  0  0  0  0
  3  6  1  0  0  0  0
  5  6  1  0  0  0  0
  6 12  1  0  0  0  0
  7  8  1  0  0  0  0
  7 10  1  0  0  0  0
  7 12  1  0  0  0  0
  8  9  1  0  0  0  0
  8 11  2  0  0  0  0
  9 15  1  0  0  0  0
 10 14  2  0  0  0  0
 12 13  2  0  0  0  0
 14 15  1  0  0  0  0
 14 18  1  0  0  0  0
 15 16  2  0  0  0  0
 16 17  1  0  0  0  0
 17 18  2  0  0  0  0
 18 19  1  0  0  0  0
 19 20  2  0  0  0  0
 20 21  1  0  0  0  0
 20 25  1  0  0  0  0
 21 24  2  0  0  0  0
 22 23  1  0  0  0  0
 22 24  1  0  0  0  0
 23 25  2  0  0  0  0
 23 26  1  0  0  0  0
  1 27  1  0  0  0  0
  2 28  1  0  0  0  0
  2 29  1  0  0  0  0
  3 30  1  0  0  0  0
  3 31  1  0  0  0  0
  4 32  1  0  0  0  0
  5 33  1  0  0  0  0
  5 34  1  0  0  0  0
  7 35  1  0  0  0  0
  9 36  1  0  0  0  0
  9 37  1  0  0  0  0
 10 38  1  0  0  0  0
 19 39  1  0  0  0  0
 21 40  1  0  0  0  0
 22 41  1  0  0  0  0
 22 42  1  0  0  0  0
 24 43  1  0  0  0  0
 25 44  1  0  0  0  0
 26 45  1  0  0  0  0
 26 46  1  0  0  0  0
 26 47  1  0  0  0  0
M  END
> <Name>
13

> <IC50[uM]>
0.006

$$$$
13
  -OEChem-05192314333D
 Structure written by MMmdl.
 47 50  0     1  0  0  0  0  0999 V2000
   -2.2088   12.9419  -10.9697 C   0  0  1  0  0  0  0  0  0  0  0  0
   -2.1904   14.4671  -10.9424 C   0  0  0  0  0  0  0  0  0  0  0  0
   -3.6992   12.5876  -10.8377 C   0  0  0  0  0  0  0  0  0  0  0  0
   -1.6826   12.4744  -12.1795 O   0  0  0  0  0  0  0  0  0  0  0  0
   -3.5107   14.9139  -11.6089 C   0  0  0  0  0  0  0  0  0  0  0  0
   -4.3443   13.7200  -11.5243 N   0  0  0  0  0  0  0  0  0  0  0  0
   -6.3525   12.3601  -12.0338 C   0  0  0  0  0  0  0  0  0  0  0  0
   -6.9727   11.7556  -13.1375 C   0  0  0  0  0  0  0  0  0  0  0  0
   -7.7097   10.5633  -13.0339 C   0  0  0  0  0  0  0  0  0  0  0  0
   -6.5001   11.8056  -10.7491 C   0  0  0  0  0  0  0  0  0  0  0  0
   -6.8506   12.3073  -14.3824 O   0  0  0  0  0  0  0  0  0  0  0  0
   -5.5377   13.6382  -12.2001 C   0  0  0  0  0  0  0  0  0  0  0  0
   -5.9500   14.5444  -12.9177 O   0  0  0  0  0  0  0  0  0  0  0  0
   -7.2308   10.6159  -10.6131 C   0  0  0  0  0  0  0  0  0  0  0  0
   -7.8083   10.0113  -11.7524 C   0  0  0  0  0  0  0  0  0  0  0  0
   -8.4200    8.8675  -11.2880 N   0  0  0  0  0  0  0  0  0  0  0  0
   -8.2847    8.7400   -9.9757 N   0  0  0  0  0  0  0  0  0  0  0  0
   -7.6047    9.7473   -9.5145 C   0  0  0  0  0  0  0  0  0  0  0  0
   -7.3264    9.8951   -8.0245 C   0  0  0  0  0  0  0  0  0  0  0  0
   -5.9604   10.4805   -7.7353 C   0  0  0  0  0  0  0  0  0  0  0  0
   -4.8075    9.7596   -8.0491 C   0  0  0  0  0  0  0  0  0  0  0  0
   -3.4358   11.5809   -7.2415 C   0  0  0  0  0  0  0  0  0  0  0  0
   -4.5835   12.3061   -6.9225 C   0  0  0  0  0  0  0  0  0  0  0  0
   -3.5481   10.3107   -7.8024 C   0  0  0  0  0  0  0  0  0  0  0  0
   -5.8471   11.7541   -7.1666 C   0  0  0  0  0  0  0  0  0  0  0  0
   -4.4650   13.6954   -6.3241 C   0  0  0  0  0  0  0  0  0  0  0  0
   -1.6558   12.5461  -10.1051 H   0  0  0  0  0  0  0  0  0  0  0  0
   -2.1418   14.8314   -9.9056 H   0  0  0  0  0  0  0  0  0  0  0  0
   -1.3273   14.8503  -11.5065 H   0  0  0  0  0  0  0  0  0  0  0  0
   -3.9292   11.6343  -11.3361 H   0  0  0  0  0  0  0  0  0  0  0  0
   -4.0052   12.5329   -9.7825 H   0  0  0  0  0  0  0  0  0  0  0  0
   -1.6986   11.5246  -12.1863 H   0  0  0  0  0  0  0  0  0  0  0  0
   -3.9654   15.7526  -11.0614 H   0  0  0  0  0  0  0  0  0  0  0  0
   -3.3451   15.2065  -12.6563 H   0  0  0  0  0  0  0  0  0  0  0  0
   -8.7298   10.7663  -13.3920 H   0  0  0  0  0  0  0  0  0  0  0  0
   -7.2340    9.8162  -13.6862 H   0  0  0  0  0  0  0  0  0  0  0  0
   -6.0607   12.2852   -9.8870 H   0  0  0  0  0  0  0  0  0  0  0  0
   -6.3117   10.0311  -10.7657 H   0  0  0  0  0  0  0  0  0  0  0  0
   -8.0295    9.6121   -7.2551 H   0  0  0  0  0  0  0  0  0  0  0  0
   -4.8892    8.7741   -8.4833 H   0  0  0  0  0  0  0  0  0  0  0  0
   -2.8612   12.1924   -7.9527 H   0  0  0  0  0  0  0  0  0  0  0  0
   -2.8628   11.4670   -6.3094 H   0  0  0  0  0  0  0  0  0  0  0  0
   -2.6581    9.7501   -8.0474 H   0  0  0  0  0  0  0  0  0  0  0  0
   -6.7366   12.3128   -6.9153 H   0  0  0  0  0  0  0  0  0  0  0  0
   -5.4700   14.1039   -6.1424 H   0  0  0  0  0  0  0  0  0  0  0  0
   -3.9148   13.6392   -5.3732 H   0  0  0  0  0  0  0  0  0  0  0  0
   -3.9239   14.3505   -7.0227 H   0  0  0  0  0  0  0  0  0  0  0  0
  1  2  1  0  0  0  0
  1  3  1  0  0  0  0
  1  4  1  0  0  0  0
  2  5  1  0  0  0  0
  3  6  1  0  0  0  0
  5  6  1  0  0  0  0
  6 12  1  0  0  0  0
  7  8  1  0  0  0  0
  7 10  2  0  0  0  0
  7 12  1  0  0  0  0
  8  9  1  0  0  0  0
  8 11  2  0  0  0  0
  9 15  1  0  0  0  0
 10 14  1  0  0  0  0
 12 13  2  0  0  0  0
 14 15  1  0  0  0  0
 14 18  1  0  0  0  0
 15 16  2  0  0  0  0
 16 17  1  0  0  0  0
 17 18  2  0  0  0  0
 18 19  1  0  0  0  0
 19 20  2  0  0  0  0
 20 21  1  0  0  0  0
 20 25  1  0  0  0  0
 21 24  2  0  0  0  0
 22 23  1  0  0  0  0
 22 24  1  0  0  0  0
 23 25  2  0  0  0  0
 23 26  1  0  0  0  0
  1 27  1  0  0  0  0
  2 28  1  0  0  0  0
  2 29  1  0  0  0  0
  3 30  1  0  0  0  0
  3 31  1  0  0  0  0
  4 32  1  0  0  0  0
  5 33  1  0  0  0  0
  5 34  1  0  0  0  0
  9 35  1  0  0  0  0
  9 36  1  0  0  0  0
 10 37  1  0  0  0  0
 14 38  1  0  0  0  0
 19 39  1  0  0  0  0
 21 40  1  0  0  0  0
 22 41  1  0  0  0  0
 22 42  1  0  0  0  0
 24 43  1  0  0  0  0
 25 44  1  0  0  0  0
 26 45  1  0  0  0  0
 26 46  1  0  0  0  0
 26 47  1  0  0  0  0
M  END
> <Name>
13

> <IC50[uM]>
0.006

$$$$
13
  -OEChem-05192314333D
 Structure written by MMmdl.
 47 50  0     1  0  0  0  0  0999 V2000
   -2.2088   12.9419  -10.9697 C   0  0  1  0  0  0  0  0  0  0  0  0
   -2.1904   14.4671  -10.9424 C   0  0  0  0  0  0  0  0  0  0  0  0
   -3.6992   12.5876  -10.8377 C   0  0  0  0  0  0  0  0  0  0  0  0
   -1.6826   12.4744  -12.1795 O   0  0  0  0  0  0  0  0  0  0  0  0
   -3.5107   14.9139  -11.6089 C   0  0  0  0  0  0  0  0  0  0  0  0
   -4.3443   13.7200  -11.5243 N   0  0  0  0  0  0  0  0  0  0  0  0
   -6.3525   12.3601  -12.0338 C   0  0  0  0  0  0  0  0  0  0  0  0
   -6.9727   11.7556  -13.1375 C   0  0  0  0  0  0  0  0  0  0  0  0
   -7.7097   10.5633  -13.0339 C   0  0  0  0  0  0  0  0  0  0  0  0
   -6.5001   11.8056  -10.7491 C   0  0  0  0  0  0  0  0  0  0  0  0
   -6.8506   12.3073  -14.3824 O   0  0  0  0  0  0  0  0  0  0  0  0
   -5.5377   13.6382  -12.2001 C   0  0  0  0  0  0  0  0  0  0  0  0
   -5.9500   14.5444  -12.9177 O   0  0  0  0  0  0  0  0  0  0  0  0
   -7.2308   10.6159  -10.6131 C   0  0  0  0  0  0  0  0  0  0  0  0
   -7.8083   10.0113  -11.7524 C   0  0  0  0  0  0  0  0  0  0  0  0
   -8.4200    8.8675  -11.2880 N   0  0  0  0  0  0  0  0  0  0  0  0
   -8.2847    8.7400   -9.9757 N   0  0  0  0  0  0  0  0  0  0  0  0
   -7.6047    9.7473   -9.5145 C   0  0  0  0  0  0  0  0  0  0  0  0
   -7.3264    9.8951   -8.0245 C   0  0  0  0  0  0  0  0  0  0  0  0
   -5.9604   10.4805   -7.7353 C   0  0  0  0  0  0  0  0  0  0  0  0
   -4.8075    9.7596   -8.0491 C   0  0  0  0  0  0  0  0  0  0  0  0
   -3.4358   11.5809   -7.2415 C   0  0  0  0  0  0  0  0  0  0  0  0
   -4.5835   12.3061   -6.9225 C   0  0  0  0  0  0  0  0  0  0  0  0
   -3.5481   10.3107   -7.8024 C   0  0  0  0  0  0  0  0  0  0  0  0
   -5.8471   11.7541   -7.1666 C   0  0  0  0  0  0  0  0  0  0  0  0
   -4.4650   13.6954   -6.3241 C   0  0  0  0  0  0  0  0  0  0  0  0
   -1.6558   12.5461  -10.1051 H   0  0  0  0  0  0  0  0  0  0  0  0
   -2.1418   14.8314   -9.9056 H   0  0  0  0  0  0  0  0  0  0  0  0
   -1.3273   14.8503  -11.5065 H   0  0  0  0  0  0  0  0  0  0  0  0
   -3.9292   11.6343  -11.3361 H   0  0  0  0  0  0  0  0  0  0  0  0
   -4.0052   12.5329   -9.7825 H   0  0  0  0  0  0  0  0  0  0  0  0
   -1.6986   11.5246  -12.1863 H   0  0  0  0  0  0  0  0  0  0  0  0
   -3.9654   15.7526  -11.0614 H   0  0  0  0  0  0  0  0  0  0  0  0
   -3.3451   15.2065  -12.6563 H   0  0  0  0  0  0  0  0  0  0  0  0
   -5.4494   11.7544  -12.1998 H   0  0  0  0  0  0  0  0  0  0  0  0
   -8.7298   10.7663  -13.3920 H   0  0  0  0  0  0  0  0  0  0  0  0
   -7.2340    9.8162  -13.6862 H   0  0  0  0  0  0  0  0  0  0  0  0
   -6.0607   12.2852   -9.8870 H   0  0  0  0  0  0  0  0  0  0  0  0
   -8.0295    9.6121   -7.2551 H   0  0  0  0  0  0  0  0  0  0  0  0
   -4.8892    8.7741   -8.4833 H   0  0  0  0  0  0  0  0  0  0  0  0
   -2.4600   12.0040   -7.0537 H   0  0  0  0  0  0  0  0  0  0  0  0
   -2.6581    9.7501   -8.0474 H   0  0  0  0  0  0  0  0  0  0  0  0
   -6.3717   12.4489   -7.8389 H   0  0  0  0  0  0  0  0  0  0  0  0
   -6.3685   11.7163   -6.1988 H   0  0  0  0  0  0  0  0  0  0  0  0
   -5.4700   14.1039   -6.1424 H   0  0  0  0  0  0  0  0  0  0  0  0
   -3.9148   13.6392   -5.3732 H   0  0  0  0  0  0  0  0  0  0  0  0
   -3.9239   14.3505   -7.0227 H   0  0  0  0  0  0  0  0  0  0  0  0
  1  2  1  0  0  0  0
  1  3  1  0  0  0  0
  1  4  1  0  0  0  0
  2  5  1  0  0  0  0
  3  6  1  0  0  0  0
  5  6  1  0  0  0  0
  6 12  1  0  0  0  0
  7  8  1  0  0  0  0
  7 10  1  0  0  0  0
  7 12  1  0  0  0  0
  8  9  1  0  0  0  0
  8 11  2  0  0  0  0
  9 15  1  0  0  0  0
 10 14  2  0  0  0  0
 12 13  2  0  0  0  0
 14 15  1  0  0  0  0
 14 18  1  0  0  0  0
 15 16  2  0  0  0  0
 16 17  1  0  0  0  0
 17 18  2  0  0  0  0
 18 19  1  0  0  0  0
 19 20  2  0  0  0  0
 20 21  1  0  0  0  0
 20 25  1  0  0  0  0
 21 24  2  0  0  0  0
 22 23  2  0  0  0  0
 22 24  1  0  0  0  0
 23 25  1  0  0  0  0
 23 26  1  0  0  0  0
  1 27  1  0  0  0  0
  2 28  1  0  0  0  0
  2 29  1  0  0  0  0
  3 30  1  0  0  0  0
  3 31  1  0  0  0  0
  4 32  1  0  0  0  0
  5 33  1  0  0  0  0
  5 34  1  0  0  0  0
  7 35  1  0  0  0  0
  9 36  1  0  0  0  0
  9 37  1  0  0  0  0
 10 38  1  0  0  0  0
 19 39  1  0  0  0  0
 21 40  1  0  0  0  0
 22 41  1  0  0  0  0
 24 42  1  0  0  0  0
 25 43  1  0  0  0  0
 25 44  1  0  0  0  0
 26 45  1  0  0  0  0
 26 46  1  0  0  0  0
 26 47  1  0  0  0  0
M  END
> <Name>
13

> <IC50[uM]>
0.006

$$$$
13
  -OEChem-05192314333D
 Structure written by MMmdl.
 47 50  0     1  0  0  0  0  0999 V2000
   -2.2088   12.9419  -10.9697 C   0  0  1  0  0  0  0  0  0  0  0  0
   -2.1904   14.4671  -10.9424 C   0  0  0  0  0  0  0  0  0  0  0  0
   -3.6992   12.5876  -10.8377 C   0  0  0  0  0  0  0  0  0  0  0  0
   -1.6826   12.4744  -12.1795 O   0  0  0  0  0  0  0  0  0  0  0  0
   -3.5107   14.9139  -11.6089 C   0  0  0  0  0  0  0  0  0  0  0  0
   -4.3443   13.7200  -11.5243 N   0  0  0  0  0  0  0  0  0  0  0  0
   -6.3525   12.3601  -12.0338 C   0  0  0  0  0  0  0  0  0  0  0  0
   -6.9727   11.7556  -13.1375 C   0  0  0  0  0  0  0  0  0  0  0  0
   -7.7097   10.5633  -13.0339 C   0  0  0  0  0  0  0  0  0  0  0  0
   -6.5001   11.8056  -10.7491 C   0  0  0  0  0  0  0  0  0  0  0  0
   -6.8506   12.3073  -14.3824 O   0  0  0  0  0  0  0  0  0  0  0  0
   -5.5377   13.6382  -12.2001 C   0  0  0  0  0  0  0  0  0  0  0  0
   -5.9500   14.5444  -12.9177 O   0  0  0  0  0  0  0  0  0  0  0  0
   -7.2308   10.6159  -10.6131 C   0  0  0  0  0  0  0  0  0  0  0  0
   -7.8083   10.0113  -11.7524 C   0  0  0  0  0  0  0  0  0  0  0  0
   -8.4200    8.8675  -11.2880 N   0  0  0  0  0  0  0  0  0  0  0  0
   -8.2847    8.7400   -9.9757 N   0  0  0  0  0  0  0  0  0  0  0  0
   -7.6047    9.7473   -9.5145 C   0  0  0  0  0  0  0  0  0  0  0  0
   -7.3264    9.8951   -8.0245 C   0  0  0  0  0  0  0  0  0  0  0  0
   -5.9604   10.4805   -7.7353 C   0  0  0  0  0  0  0  0  0  0  0  0
   -4.8075    9.7596   -8.0491 C   0  0  0  0  0  0  0  0  0  0  0  0
   -3.4358   11.5809   -7.2415 C   0  0  0  0  0  0  0  0  0  0  0  0
   -4.5835   12.3061   -6.9225 C   0  0  0  0  0  0  0  0  0  0  0  0
   -3.5481   10.3107   -7.8024 C   0  0  0  0  0  0  0  0  0  0  0  0
   -5.8471   11.7541   -7.1666 C   0  0  0  0  0  0  0  0  0  0  0  0
   -4.4650   13.6954   -6.3241 C   0  0  0  0  0  0  0  0  0  0  0  0
   -1.6558   12.5461  -10.1051 H   0  0  0  0  0  0  0  0  0  0  0  0
   -2.1418   14.8314   -9.9056 H   0  0  0  0  0  0  0  0  0  0  0  0
   -1.3273   14.8503  -11.5065 H   0  0  0  0  0  0  0  0  0  0  0  0
   -3.9292   11.6343  -11.3361 H   0  0  0  0  0  0  0  0  0  0  0  0
   -4.0052   12.5329   -9.7825 H   0  0  0  0  0  0  0  0  0  0  0  0
   -1.6986   11.5246  -12.1863 H   0  0  0  0  0  0  0  0  0  0  0  0
   -3.9654   15.7526  -11.0614 H   0  0  0  0  0  0  0  0  0  0  0  0
   -3.3451   15.2065  -12.6563 H   0  0  0  0  0  0  0  0  0  0  0  0
   -8.7298   10.7663  -13.3920 H   0  0  0  0  0  0  0  0  0  0  0  0
   -7.2340    9.8162  -13.6862 H   0  0  0  0  0  0  0  0  0  0  0  0
   -6.0607   12.2852   -9.8870 H   0  0  0  0  0  0  0  0  0  0  0  0
   -6.3117   10.0311  -10.7657 H   0  0  0  0  0  0  0  0  0  0  0  0
   -8.0295    9.6121   -7.2551 H   0  0  0  0  0  0  0  0  0  0  0  0
   -4.8892    8.7741   -8.4833 H   0  0  0  0  0  0  0  0  0  0  0  0
   -2.4600   12.0040   -7.0537 H   0  0  0  0  0  0  0  0  0  0  0  0
   -2.6581    9.7501   -8.0474 H   0  0  0  0  0  0  0  0  0  0  0  0
   -6.3717   12.4489   -7.8389 H   0  0  0  0  0  0  0  0  0  0  0  0
   -6.3685   11.7163   -6.1988 H   0  0  0  0  0  0  0  0  0  0  0  0
   -5.4700   14.1039   -6.1424 H   0  0  0  0  0  0  0  0  0  0  0  0
   -3.9148   13.6392   -5.3732 H   0  0  0  0  0  0  0  0  0  0  0  0
   -3.9239   14.3505   -7.0227 H   0  0  0  0  0  0  0  0  0  0  0  0
  1  2  1  0  0  0  0
  1  3  1  0  0  0  0
  1  4  1  0  0  0  0
  2  5  1  0  0  0  0
  3  6  1  0  0  0  0
  5  6  1  0  0  0  0
  6 12  1  0  0  0  0
  7  8  1  0  0  0  0
  7 10  2  0  0  0  0
  7 12  1  0  0  0  0
  8  9  1  0  0  0  0
  8 11  2  0  0  0  0
  9 15  1  0  0  0  0
 10 14  1  0  0  0  0
 12 13  2  0  0  0  0
 14 15  1  0  0  0  0
 14 18  1  0  0  0  0
 15 16  2  0  0  0  0
 16 17  1  0  0  0  0
 17 18  2  0  0  0  0
 18 19  1  0  0  0  0
 19 20  2  0  0  0  0
 20 21  1  0  0  0  0
 20 25  1  0  0  0  0
 21 24  2  0  0  0  0
 22 23  2  0  0  0  0
 22 24  1  0  0  0  0
 23 25  1  0  0  0  0
 23 26  1  0  0  0  0
  1 27  1  0  0  0  0
  2 28  1  0  0  0  0
  2 29  1  0  0  0  0
  3 30  1  0  0  0  0
  3 31  1  0  0  0  0
  4 32  1  0  0  0  0
  5 33  1  0  0  0  0
  5 34  1  0  0  0  0
  9 35  1  0  0  0  0
  9 36  1  0  0  0  0
 10 37  1  0  0  0  0
 14 38  1  0  0  0  0
 19 39  1  0  0  0  0
 21 40  1  0  0  0  0
 22 41  1  0  0  0  0
 24 42  1  0  0  0  0
 25 43  1  0  0  0  0
 25 44  1  0  0  0  0
 26 45  1  0  0  0  0
 26 46  1  0  0  0  0
 26 47  1  0  0  0  0
M  END
> <Name>
13

> <IC50[uM]>
0.006

$$$$
13
  -OEChem-05192314333D
 Structure written by MMmdl.
 47 50  0     1  0  0  0  0  0999 V2000
   -2.2088   12.9419  -10.9697 C   0  0  1  0  0  0  0  0  0  0  0  0
   -2.1904   14.4671  -10.9424 C   0  0  0  0  0  0  0  0  0  0  0  0
   -3.6992   12.5876  -10.8377 C   0  0  0  0  0  0  0  0  0  0  0  0
   -1.6826   12.4744  -12.1795 O   0  0  0  0  0  0  0  0  0  0  0  0
   -3.5107   14.9139  -11.6089 C   0  0  0  0  0  0  0  0  0  0  0  0
   -4.3443   13.7200  -11.5243 N   0  0  0  0  0  0  0  0  0  0  0  0
   -6.3525   12.3601  -12.0338 C   0  0  0  0  0  0  0  0  0  0  0  0
   -6.9727   11.7556  -13.1375 C   0  0  0  0  0  0  0  0  0  0  0  0
   -7.7097   10.5633  -13.0339 C   0  0  0  0  0  0  0  0  0  0  0  0
   -6.5001   11.8056  -10.7491 C   0  0  0  0  0  0  0  0  0  0  0  0
   -6.8506   12.3073  -14.3824 O   0  0  0  0  0  0  0  0  0  0  0  0
   -5.5377   13.6382  -12.2001 C   0  0  0  0  0  0  0  0  0  0  0  0
   -5.9500   14.5444  -12.9177 O   0  0  0  0  0  0  0  0  0  0  0  0
   -7.2308   10.6159  -10.6131 C   0  0  0  0  0  0  0  0  0  0  0  0
   -7.8083   10.0113  -11.7524 C   0  0  0  0  0  0  0  0  0  0  0  0
   -8.4200    8.8675  -11.2880 N   0  0  0  0  0  0  0  0  0  0  0  0
   -8.2847    8.7400   -9.9757 N   0  0  0  0  0  0  0  0  0  0  0  0
   -7.6047    9.7473   -9.5145 C   0  0  0  0  0  0  0  0  0  0  0  0
   -7.3264    9.8951   -8.0245 C   0  0  0  0  0  0  0  0  0  0  0  0
   -5.9604   10.4805   -7.7353 C   0  0  0  0  0  0  0  0  0  0  0  0
   -4.8075    9.7596   -8.0491 C   0  0  0  0  0  0  0  0  0  0  0  0
   -3.4358   11.5809   -7.2415 C   0  0  0  0  0  0  0  0  0  0  0  0
   -4.5835   12.3061   -6.9225 C   0  0  0  0  0  0  0  0  0  0  0  0
   -3.5481   10.3107   -7.8024 C   0  0  0  0  0  0  0  0  0  0  0  0
   -5.8471   11.7541   -7.1666 C   0  0  0  0  0  0  0  0  0  0  0  0
   -4.4650   13.6954   -6.3241 C   0  0  0  0  0  0  0  0  0  0  0  0
   -1.6558   12.5461  -10.1051 H   0  0  0  0  0  0  0  0  0  0  0  0
   -2.1418   14.8314   -9.9056 H   0  0  0  0  0  0  0  0  0  0  0  0
   -1.3273   14.8503  -11.5065 H   0  0  0  0  0  0  0  0  0  0  0  0
   -3.9292   11.6343  -11.3361 H   0  0  0  0  0  0  0  0  0  0  0  0
   -4.0052   12.5329   -9.7825 H   0  0  0  0  0  0  0  0  0  0  0  0
   -1.6986   11.5246  -12.1863 H   0  0  0  0  0  0  0  0  0  0  0  0
   -3.9654   15.7526  -11.0614 H   0  0  0  0  0  0  0  0  0  0  0  0
   -3.3451   15.2065  -12.6563 H   0  0  0  0  0  0  0  0  0  0  0  0
   -8.1726   10.1006  -13.8930 H   0  0  0  0  0  0  0  0  0  0  0  0
   -5.4892   11.6119  -10.3610 H   0  0  0  0  0  0  0  0  0  0  0  0
   -6.9942   12.5634  -10.1232 H   0  0  0  0  0  0  0  0  0  0  0  0
   -6.5242   13.1961  -14.3048 H   0  0  0  0  0  0  0  0  0  0  0  0
   -8.0295    9.6121   -7.2551 H   0  0  0  0  0  0  0  0  0  0  0  0
   -4.8582    8.8181   -7.4825 H   0  0  0  0  0  0  0  0  0  0  0  0
   -4.8529    9.5421   -9.1264 H   0  0  0  0  0  0  0  0  0  0  0  0
   -2.4600   12.0040   -7.0537 H   0  0  0  0  0  0  0  0  0  0  0  0
   -2.6581    9.7501   -8.0474 H   0  0  0  0  0  0  0  0  0  0  0  0
   -6.7366   12.3128   -6.9153 H   0  0  0  0  0  0  0  0  0  0  0  0
   -5.4700   14.1039   -6.1424 H   0  0  0  0  0  0  0  0  0  0  0  0
   -3.9148   13.6392   -5.3732 H   0  0  0  0  0  0  0  0  0  0  0  0
   -3.9239   14.3505   -7.0227 H   0  0  0  0  0  0  0  0  0  0  0  0
  1  2  1  0  0  0  0
  1  3  1  0  0  0  0
  1  4  1  0  0  0  0
  2  5  1  0  0  0  0
  3  6  1  0  0  0  0
  5  6  1  0  0  0  0
  6 12  1  0  0  0  0
  7  8  2  0  0  0  0
  7 10  1  0  0  0  0
  7 12  1  0  0  0  0
  8  9  1  0  0  0  0
  8 11  1  0  0  0  0
  9 15  2  0  0  0  0
 10 14  1  0  0  0  0
 12 13  2  0  0  0  0
 14 15  1  0  0  0  0
 14 18  2  0  0  0  0
 15 16  1  0  0  0  0
 16 17  2  0  0  0  0
 17 18  1  0  0  0  0
 18 19  1  0  0  0  0
 19 20  2  0  0  0  0
 20 21  1  0  0  0  0
 20 25  1  0  0  0  0
 21 24  1  0  0  0  0
 22 23  1  0  0  0  0
 22 24  2  0  0  0  0
 23 25  2  0  0  0  0
 23 26  1  0  0  0  0
  1 27  1  0  0  0  0
  2 28  1  0  0  0  0
  2 29  1  0  0  0  0
  3 30  1  0  0  0  0
  3 31  1  0  0  0  0
  4 32  1  0  0  0  0
  5 33  1  0  0  0  0
  5 34  1  0  0  0  0
  9 35  1  0  0  0  0
 10 36  1  0  0  0  0
 10 37  1  0  0  0  0
 11 38  1  0  0  0  0
 19 39  1  0  0  0  0
 21 40  1  0  0  0  0
 21 41  1  0  0  0  0
 22 42  1  0  0  0  0
 24 43  1  0  0  0  0
 25 44  1  0  0  0  0
 26 45  1  0  0  0  0
 26 46  1  0  0  0  0
 26 47  1  0  0  0  0
M  END
> <Name>
13

> <IC50[uM]>
0.006

$$$$
13
  -OEChem-05192314333D
 Structure written by MMmdl.
 47 50  0     1  0  0  0  0  0999 V2000
   -2.2088   12.9419  -10.9697 C   0  0  1  0  0  0  0  0  0  0  0  0
   -2.1904   14.4671  -10.9424 C   0  0  0  0  0  0  0  0  0  0  0  0
   -3.6992   12.5876  -10.8377 C   0  0  0  0  0  0  0  0  0  0  0  0
   -1.6826   12.4744  -12.1795 O   0  0  0  0  0  0  0  0  0  0  0  0
   -3.5107   14.9139  -11.6089 C   0  0  0  0  0  0  0  0  0  0  0  0
   -4.3443   13.7200  -11.5243 N   0  0  0  0  0  0  0  0  0  0  0  0
   -6.3525   12.3601  -12.0338 C   0  0  0  0  0  0  0  0  0  0  0  0
   -6.9727   11.7556  -13.1375 C   0  0  0  0  0  0  0  0  0  0  0  0
   -7.7097   10.5633  -13.0339 C   0  0  0  0  0  0  0  0  0  0  0  0
   -6.5001   11.8056  -10.7491 C   0  0  0  0  0  0  0  0  0  0  0  0
   -6.8506   12.3073  -14.3824 O   0  0  0  0  0  0  0  0  0  0  0  0
   -5.5377   13.6382  -12.2001 C   0  0  0  0  0  0  0  0  0  0  0  0
   -5.9500   14.5444  -12.9177 O   0  0  0  0  0  0  0  0  0  0  0  0
   -7.2308   10.6159  -10.6131 C   0  0  0  0  0  0  0  0  0  0  0  0
   -7.8083   10.0113  -11.7524 C   0  0  0  0  0  0  0  0  0  0  0  0
   -8.4200    8.8675  -11.2880 N   0  0  0  0  0  0  0  0  0  0  0  0
   -8.2847    8.7400   -9.9757 N   0  0  0  0  0  0  0  0  0  0  0  0
   -7.6047    9.7473   -9.5145 C   0  0  0  0  0  0  0  0  0  0  0  0
   -7.3264    9.8951   -8.0245 C   0  0  0  0  0  0  0  0  0  0  0  0
   -5.9604   10.4805   -7.7353 C   0  0  0  0  0  0  0  0  0  0  0  0
   -4.8075    9.7596   -8.0491 C   0  0  0  0  0  0  0  0  0  0  0  0
   -3.4358   11.5809   -7.2415 C   0  0  0  0  0  0  0  0  0  0  0  0
   -4.5835   12.3061   -6.9225 C   0  0  0  0  0  0  0  0  0  0  0  0
   -3.5481   10.3107   -7.8024 C   0  0  0  0  0  0  0  0  0  0  0  0
   -5.8471   11.7541   -7.1666 C   0  0  0  0  0  0  0  0  0  0  0  0
   -4.4650   13.6954   -6.3241 C   0  0  0  0  0  0  0  0  0  0  0  0
   -1.6558   12.5461  -10.1051 H   0  0  0  0  0  0  0  0  0  0  0  0
   -2.1418   14.8314   -9.9056 H   0  0  0  0  0  0  0  0  0  0  0  0
   -1.3273   14.8503  -11.5065 H   0  0  0  0  0  0  0  0  0  0  0  0
   -3.9292   11.6343  -11.3361 H   0  0  0  0  0  0  0  0  0  0  0  0
   -4.0052   12.5329   -9.7825 H   0  0  0  0  0  0  0  0  0  0  0  0
   -1.6986   11.5246  -12.1863 H   0  0  0  0  0  0  0  0  0  0  0  0
   -3.9654   15.7526  -11.0614 H   0  0  0  0  0  0  0  0  0  0  0  0
   -3.3451   15.2065  -12.6563 H   0  0  0  0  0  0  0  0  0  0  0  0
   -8.1726   10.1006  -13.8930 H   0  0  0  0  0  0  0  0  0  0  0  0
   -5.4892   11.6119  -10.3610 H   0  0  0  0  0  0  0  0  0  0  0  0
   -6.9942   12.5634  -10.1232 H   0  0  0  0  0  0  0  0  0  0  0  0
   -6.5242   13.1961  -14.3048 H   0  0  0  0  0  0  0  0  0  0  0  0
   -8.0295    9.6121   -7.2551 H   0  0  0  0  0  0  0  0  0  0  0  0
   -4.8892    8.7741   -8.4833 H   0  0  0  0  0  0  0  0  0  0  0  0
   -2.8612   12.1924   -7.9527 H   0  0  0  0  0  0  0  0  0  0  0  0
   -2.8628   11.4670   -6.3094 H   0  0  0  0  0  0  0  0  0  0  0  0
   -2.6581    9.7501   -8.0474 H   0  0  0  0  0  0  0  0  0  0  0  0
   -6.7366   12.3128   -6.9153 H   0  0  0  0  0  0  0  0  0  0  0  0
   -5.4700   14.1039   -6.1424 H   0  0  0  0  0  0  0  0  0  0  0  0
   -3.9148   13.6392   -5.3732 H   0  0  0  0  0  0  0  0  0  0  0  0
   -3.9239   14.3505   -7.0227 H   0  0  0  0  0  0  0  0  0  0  0  0
  1  2  1  0  0  0  0
  1  3  1  0  0  0  0
  1  4  1  0  0  0  0
  2  5  1  0  0  0  0
  3  6  1  0  0  0  0
  5  6  1  0  0  0  0
  6 12  1  0  0  0  0
  7  8  2  0  0  0  0
  7 10  1  0  0  0  0
  7 12  1  0  0  0  0
  8  9  1  0  0  0  0
  8 11  1  0  0  0  0
  9 15  2  0  0  0  0
 10 14  1  0  0  0  0
 12 13  2  0  0  0  0
 14 15  1  0  0  0  0
 14 18  2  0  0  0  0
 15 16  1  0  0  0  0
 16 17  2  0  0  0  0
 17 18  1  0  0  0  0
 18 19  1  0  0  0  0
 19 20  2  0  0  0  0
 20 21  1  0  0  0  0
 20 25  1  0  0  0  0
 21 24  2  0  0  0  0
 22 23  1  0  0  0  0
 22 24  1  0  0  0  0
 23 25  2  0  0  0  0
 23 26  1  0  0  0  0
  1 27  1  0  0  0  0
  2 28  1  0  0  0  0
  2 29  1  0  0  0  0
  3 30  1  0  0  0  0
  3 31  1  0  0  0  0
  4 32  1  0  0  0  0
  5 33  1  0  0  0  0
  5 34  1  0  0  0  0
  9 35  1  0  0  0  0
 10 36  1  0  0  0  0
 10 37  1  0  0  0  0
 11 38  1  0  0  0  0
 19 39  1  0  0  0  0
 21 40  1  0  0  0  0
 22 41  1  0  0  0  0
 22 42  1  0  0  0  0
 24 43  1  0  0  0  0
 25 44  1  0  0  0  0
 26 45  1  0  0  0  0
 26 46  1  0  0  0  0
 26 47  1  0  0  0  0
M  END
> <Name>
13

> <IC50[uM]>
0.006

$$$$
13
  -OEChem-05192314333D
 Structure written by MMmdl.
 47 50  0     1  0  0  0  0  0999 V2000
   -2.2088   12.9419  -10.9697 C   0  0  1  0  0  0  0  0  0  0  0  0
   -2.1904   14.4671  -10.9424 C   0  0  0  0  0  0  0  0  0  0  0  0
   -3.6992   12.5876  -10.8377 C   0  0  0  0  0  0  0  0  0  0  0  0
   -1.6826   12.4744  -12.1795 O   0  0  0  0  0  0  0  0  0  0  0  0
   -3.5107   14.9139  -11.6089 C   0  0  0  0  0  0  0  0  0  0  0  0
   -4.3443   13.7200  -11.5243 N   0  0  0  0  0  0  0  0  0  0  0  0
   -6.3525   12.3601  -12.0338 C   0  0  0  0  0  0  0  0  0  0  0  0
   -6.9727   11.7556  -13.1375 C   0  0  0  0  0  0  0  0  0  0  0  0
   -7.7097   10.5633  -13.0339 C   0  0  0  0  0  0  0  0  0  0  0  0
   -6.5001   11.8056  -10.7491 C   0  0  0  0  0  0  0  0  0  0  0  0
   -6.8506   12.3073  -14.3824 O   0  0  0  0  0  0  0  0  0  0  0  0
   -5.5377   13.6382  -12.2001 C   0  0  0  0  0  0  0  0  0  0  0  0
   -5.9500   14.5444  -12.9177 O   0  0  0  0  0  0  0  0  0  0  0  0
   -7.2308   10.6159  -10.6131 C   0  0  0  0  0  0  0  0  0  0  0  0
   -7.8083   10.0113  -11.7524 C   0  0  0  0  0  0  0  0  0  0  0  0
   -8.4200    8.8675  -11.2880 N   0  0  0  0  0  0  0  0  0  0  0  0
   -8.2847    8.7400   -9.9757 N   0  0  0  0  0  0  0  0  0  0  0  0
   -7.6047    9.7473   -9.5145 C   0  0  0  0  0  0  0  0  0  0  0  0
   -7.3264    9.8951   -8.0245 C   0  0  0  0  0  0  0  0  0  0  0  0
   -5.9604   10.4805   -7.7353 C   0  0  0  0  0  0  0  0  0  0  0  0
   -4.8075    9.7596   -8.0491 C   0  0  0  0  0  0  0  0  0  0  0  0
   -3.4358   11.5809   -7.2415 C   0  0  0  0  0  0  0  0  0  0  0  0
   -4.5835   12.3061   -6.9225 C   0  0  0  0  0  0  0  0  0  0  0  0
   -3.5481   10.3107   -7.8024 C   0  0  0  0  0  0  0  0  0  0  0  0
   -5.8471   11.7541   -7.1666 C   0  0  0  0  0  0  0  0  0  0  0  0
   -4.4650   13.6954   -6.3241 C   0  0  0  0  0  0  0  0  0  0  0  0
   -1.6558   12.5461  -10.1051 H   0  0  0  0  0  0  0  0  0  0  0  0
   -2.1418   14.8314   -9.9056 H   0  0  0  0  0  0  0  0  0  0  0  0
   -1.3273   14.8503  -11.5065 H   0  0  0  0  0  0  0  0  0  0  0  0
   -3.9292   11.6343  -11.3361 H   0  0  0  0  0  0  0  0  0  0  0  0
   -4.0052   12.5329   -9.7825 H   0  0  0  0  0  0  0  0  0  0  0  0
   -1.6986   11.5246  -12.1863 H   0  0  0  0  0  0  0  0  0  0  0  0
   -3.9654   15.7526  -11.0614 H   0  0  0  0  0  0  0  0  0  0  0  0
   -3.3451   15.2065  -12.6563 H   0  0  0  0  0  0  0  0  0  0  0  0
   -8.1726   10.1006  -13.8930 H   0  0  0  0  0  0  0  0  0  0  0  0
   -5.4892   11.6119  -10.3610 H   0  0  0  0  0  0  0  0  0  0  0  0
   -6.9942   12.5634  -10.1232 H   0  0  0  0  0  0  0  0  0  0  0  0
   -6.5242   13.1961  -14.3048 H   0  0  0  0  0  0  0  0  0  0  0  0
   -8.0295    9.6121   -7.2551 H   0  0  0  0  0  0  0  0  0  0  0  0
   -4.8892    8.7741   -8.4833 H   0  0  0  0  0  0  0  0  0  0  0  0
   -2.4600   12.0040   -7.0537 H   0  0  0  0  0  0  0  0  0  0  0  0
   -2.6581    9.7501   -8.0474 H   0  0  0  0  0  0  0  0  0  0  0  0
   -6.3717   12.4489   -7.8389 H   0  0  0  0  0  0  0  0  0  0  0  0
   -6.3685   11.7163   -6.1988 H   0  0  0  0  0  0  0  0  0  0  0  0
   -5.4700   14.1039   -6.1424 H   0  0  0  0  0  0  0  0  0  0  0  0
   -3.9148   13.6392   -5.3732 H   0  0  0  0  0  0  0  0  0  0  0  0
   -3.9239   14.3505   -7.0227 H   0  0  0  0  0  0  0  0  0  0  0  0
  1  2  1  0  0  0  0
  1  3  1  0  0  0  0
  1  4  1  0  0  0  0
  2  5  1  0  0  0  0
  3  6  1  0  0  0  0
  5  6  1  0  0  0  0
  6 12  1  0  0  0  0
  7  8  2  0  0  0  0
  7 10  1  0  0  0  0
  7 12  1  0  0  0  0
  8  9  1  0  0  0  0
  8 11  1  0  0  0  0
  9 15  2  0  0  0  0
 10 14  1  0  0  0  0
 12 13  2  0  0  0  0
 14 15  1  0  0  0  0
 14 18  2  0  0  0  0
 15 16  1  0  0  0  0
 16 17  2  0  0  0  0
 17 18  1  0  0  0  0
 18 19  1  0  0  0  0
 19 20  2  0  0  0  0
 20 21  1  0  0  0  0
 20 25  1  0  0  0  0
 21 24  2  0  0  0  0
 22 23  2  0  0  0  0
 22 24  1  0  0  0  0
 23 25  1  0  0  0  0
 23 26  1  0  0  0  0
  1 27  1  0  0  0  0
  2 28  1  0  0  0  0
  2 29  1  0  0  0  0
  3 30  1  0  0  0  0
  3 31  1  0  0  0  0
  4 32  1  0  0  0  0
  5 33  1  0  0  0  0
  5 34  1  0  0  0  0
  9 35  1  0  0  0  0
 10 36  1  0  0  0  0
 10 37  1  0  0  0  0
 11 38  1  0  0  0  0
 19 39  1  0  0  0  0
 21 40  1  0  0  0  0
 22 41  1  0  0  0  0
 24 42  1  0  0  0  0
 25 43  1  0  0  0  0
 25 44  1  0  0  0  0
 26 45  1  0  0  0  0
 26 46  1  0  0  0  0
 26 47  1  0  0  0  0
M  END
> <Name>
13

> <IC50[uM]>
0.006

$$$$
13
  -OEChem-05192314333D
 Structure written by MMmdl.
 47 50  0     1  0  0  0  0  0999 V2000
   -2.2088   12.9419  -10.9697 C   0  0  1  0  0  0  0  0  0  0  0  0
   -2.1904   14.4671  -10.9424 C   0  0  0  0  0  0  0  0  0  0  0  0
   -3.6992   12.5876  -10.8377 C   0  0  0  0  0  0  0  0  0  0  0  0
   -1.6826   12.4744  -12.1795 O   0  0  0  0  0  0  0  0  0  0  0  0
   -3.5107   14.9139  -11.6089 C   0  0  0  0  0  0  0  0  0  0  0  0
   -4.3443   13.7200  -11.5243 N   0  0  0  0  0  0  0  0  0  0  0  0
   -6.3525   12.3601  -12.0338 C   0  0  0  0  0  0  0  0  0  0  0  0
   -6.9727   11.7556  -13.1375 C   0  0  0  0  0  0  0  0  0  0  0  0
   -7.7097   10.5633  -13.0339 C   0  0  0  0  0  0  0  0  0  0  0  0
   -6.5001   11.8056  -10.7491 C   0  0  0  0  0  0  0  0  0  0  0  0
   -6.8506   12.3073  -14.3824 O   0  0  0  0  0  0  0  0  0  0  0  0
   -5.5377   13.6382  -12.2001 C   0  0  0  0  0  0  0  0  0  0  0  0
   -5.9500   14.5444  -12.9177 O   0  0  0  0  0  0  0  0  0  0  0  0
   -7.2308   10.6159  -10.6131 C   0  0  0  0  0  0  0  0  0  0  0  0
   -7.8083   10.0113  -11.7524 C   0  0  0  0  0  0  0  0  0  0  0  0
   -8.4200    8.8675  -11.2880 N   0  0  0  0  0  0  0  0  0  0  0  0
   -8.2847    8.7400   -9.9757 N   0  0  0  0  0  0  0  0  0  0  0  0
   -7.6047    9.7473   -9.5145 C   0  0  0  0  0  0  0  0  0  0  0  0
   -7.3264    9.8951   -8.0245 C   0  0  0  0  0  0  0  0  0  0  0  0
   -5.9604   10.4805   -7.7353 C   0  0  0  0  0  0  0  0  0  0  0  0
   -4.8075    9.7596   -8.0491 C   0  0  0  0  0  0  0  0  0  0  0  0
   -3.4358   11.5809   -7.2415 C   0  0  0  0  0  0  0  0  0  0  0  0
   -4.5835   12.3061   -6.9225 C   0  0  0  0  0  0  0  0  0  0  0  0
   -3.5481   10.3107   -7.8024 C   0  0  0  0  0  0  0  0  0  0  0  0
   -5.8471   11.7541   -7.1666 C   0  0  0  0  0  0  0  0  0  0  0  0
   -4.4650   13.6954   -6.3241 C   0  0  0  0  0  0  0  0  0  0  0  0
   -1.6558   12.5461  -10.1051 H   0  0  0  0  0  0  0  0  0  0  0  0
   -2.1418   14.8314   -9.9056 H   0  0  0  0  0  0  0  0  0  0  0  0
   -1.3273   14.8503  -11.5065 H   0  0  0  0  0  0  0  0  0  0  0  0
   -3.9292   11.6343  -11.3361 H   0  0  0  0  0  0  0  0  0  0  0  0
   -4.0052   12.5329   -9.7825 H   0  0  0  0  0  0  0  0  0  0  0  0
   -1.6986   11.5246  -12.1863 H   0  0  0  0  0  0  0  0  0  0  0  0
   -3.9654   15.7526  -11.0614 H   0  0  0  0  0  0  0  0  0  0  0  0
   -3.3451   15.2065  -12.6563 H   0  0  0  0  0  0  0  0  0  0  0  0
   -5.4494   11.7544  -12.1998 H   0  0  0  0  0  0  0  0  0  0  0  0
   -8.1726   10.1006  -13.8930 H   0  0  0  0  0  0  0  0  0  0  0  0
   -6.0607   12.2852   -9.8870 H   0  0  0  0  0  0  0  0  0  0  0  0
   -8.0295    9.6121   -7.2551 H   0  0  0  0  0  0  0  0  0  0  0  0
   -4.8582    8.8181   -7.4825 H   0  0  0  0  0  0  0  0  0  0  0  0
   -4.8529    9.5421   -9.1264 H   0  0  0  0  0  0  0  0  0  0  0  0
   -2.4600   12.0040   -7.0537 H   0  0  0  0  0  0  0  0  0  0  0  0
   -4.5836   11.8682   -5.9134 H   0  0  0  0  0  0  0  0  0  0  0  0
   -2.6581    9.7501   -8.0474 H   0  0  0  0  0  0  0  0  0  0  0  0
   -6.7366   12.3128   -6.9153 H   0  0  0  0  0  0  0  0  0  0  0  0
   -5.4700   14.1039   -6.1424 H   0  0  0  0  0  0  0  0  0  0  0  0
   -3.9148   13.6392   -5.3732 H   0  0  0  0  0  0  0  0  0  0  0  0
   -3.9239   14.3505   -7.0227 H   0  0  0  0  0  0  0  0  0  0  0  0
  1  2  1  0  0  0  0
  1  3  1  0  0  0  0
  1  4  1  0  0  0  0
  2  5  1  0  0  0  0
  3  6  1  0  0  0  0
  5  6  1  0  0  0  0
  6 12  1  0  0  0  0
  7  8  1  0  0  0  0
  7 10  1  0  0  0  0
  7 12  1  0  0  0  0
  8  9  1  0  0  0  0
  8 11  2  0  0  0  0
  9 15  2  0  0  0  0
 10 14  2  0  0  0  0
 12 13  2  0  0  0  0
 14 15  1  0  0  0  0
 14 18  1  0  0  0  0
 15 16  1  0  0  0  0
 16 17  2  0  0  0  0
 17 18  1  0  0  0  0
 18 19  2  0  0  0  0
 19 20  1  0  0  0  0
 20 21  1  0  0  0  0
 20 25  2  0  0  0  0
 21 24  1  0  0  0  0
 22 23  1  0  0  0  0
 22 24  2  0  0  0  0
 23 25  1  0  0  0  0
 23 26  1  0  0  0  0
  1 27  1  0  0  0  0
  2 28  1  0  0  0  0
  2 29  1  0  0  0  0
  3 30  1  0  0  0  0
  3 31  1  0  0  0  0
  4 32  1  0  0  0  0
  5 33  1  0  0  0  0
  5 34  1  0  0  0  0
  7 35  1  0  0  0  0
  9 36  1  0  0  0  0
 10 37  1  0  0  0  0
 19 38  1  0  0  0  0
 21 39  1  0  0  0  0
 21 40  1  0  0  0  0
 22 41  1  0  0  0  0
 23 42  1  0  0  0  0
 24 43  1  0  0  0  0
 25 44  1  0  0  0  0
 26 45  1  0  0  0  0
 26 46  1  0  0  0  0
 26 47  1  0  0  0  0
M  END
> <Name>
13

> <IC50[uM]>
0.006

$$$$
13
  -OEChem-05192314333D
 Structure written by MMmdl.
 47 50  0     1  0  0  0  0  0999 V2000
   -2.2088   12.9419  -10.9697 C   0  0  1  0  0  0  0  0  0  0  0  0
   -2.1904   14.4671  -10.9424 C   0  0  0  0  0  0  0  0  0  0  0  0
   -3.6992   12.5876  -10.8377 C   0  0  0  0  0  0  0  0  0  0  0  0
   -1.6826   12.4744  -12.1795 O   0  0  0  0  0  0  0  0  0  0  0  0
   -3.5107   14.9139  -11.6089 C   0  0  0  0  0  0  0  0  0  0  0  0
   -4.3443   13.7200  -11.5243 N   0  0  0  0  0  0  0  0  0  0  0  0
   -6.3525   12.3601  -12.0338 C   0  0  0  0  0  0  0  0  0  0  0  0
   -6.9727   11.7556  -13.1375 C   0  0  0  0  0  0  0  0  0  0  0  0
   -7.7097   10.5633  -13.0339 C   0  0  0  0  0  0  0  0  0  0  0  0
   -6.5001   11.8056  -10.7491 C   0  0  0  0  0  0  0  0  0  0  0  0
   -6.8506   12.3073  -14.3824 O   0  0  0  0  0  0  0  0  0  0  0  0
   -5.5377   13.6382  -12.2001 C   0  0  0  0  0  0  0  0  0  0  0  0
   -5.9500   14.5444  -12.9177 O   0  0  0  0  0  0  0  0  0  0  0  0
   -7.2308   10.6159  -10.6131 C   0  0  0  0  0  0  0  0  0  0  0  0
   -7.8083   10.0113  -11.7524 C   0  0  0  0  0  0  0  0  0  0  0  0
   -8.4200    8.8675  -11.2880 N   0  0  0  0  0  0  0  0  0  0  0  0
   -8.2847    8.7400   -9.9757 N   0  0  0  0  0  0  0  0  0  0  0  0
   -7.6047    9.7473   -9.5145 C   0  0  0  0  0  0  0  0  0  0  0  0
   -7.3264    9.8951   -8.0245 C   0  0  0  0  0  0  0  0  0  0  0  0
   -5.9604   10.4805   -7.7353 C   0  0  0  0  0  0  0  0  0  0  0  0
   -4.8075    9.7596   -8.0491 C   0  0  0  0  0  0  0  0  0  0  0  0
   -3.4358   11.5809   -7.2415 C   0  0  0  0  0  0  0  0  0  0  0  0
   -4.5835   12.3061   -6.9225 C   0  0  0  0  0  0  0  0  0  0  0  0
   -3.5481   10.3107   -7.8024 C   0  0  0  0  0  0  0  0  0  0  0  0
   -5.8471   11.7541   -7.1666 C   0  0  0  0  0  0  0  0  0  0  0  0
   -4.4650   13.6954   -6.3241 C   0  0  0  0  0  0  0  0  0  0  0  0
   -1.6558   12.5461  -10.1051 H   0  0  0  0  0  0  0  0  0  0  0  0
   -2.1418   14.8314   -9.9056 H   0  0  0  0  0  0  0  0  0  0  0  0
   -1.3273   14.8503  -11.5065 H   0  0  0  0  0  0  0  0  0  0  0  0
   -3.9292   11.6343  -11.3361 H   0  0  0  0  0  0  0  0  0  0  0  0
   -4.0052   12.5329   -9.7825 H   0  0  0  0  0  0  0  0  0  0  0  0
   -1.6986   11.5246  -12.1863 H   0  0  0  0  0  0  0  0  0  0  0  0
   -3.9654   15.7526  -11.0614 H   0  0  0  0  0  0  0  0  0  0  0  0
   -3.3451   15.2065  -12.6563 H   0  0  0  0  0  0  0  0  0  0  0  0
   -5.4494   11.7544  -12.1998 H   0  0  0  0  0  0  0  0  0  0  0  0
   -8.1726   10.1006  -13.8930 H   0  0  0  0  0  0  0  0  0  0  0  0
   -6.0607   12.2852   -9.8870 H   0  0  0  0  0  0  0  0  0  0  0  0
   -8.0295    9.6121   -7.2551 H   0  0  0  0  0  0  0  0  0  0  0  0
   -5.9749   10.0291   -6.7323 H   0  0  0  0  0  0  0  0  0  0  0  0
   -4.8582    8.8181   -7.4825 H   0  0  0  0  0  0  0  0  0  0  0  0
   -4.8529    9.5421   -9.1264 H   0  0  0  0  0  0  0  0  0  0  0  0
   -2.4600   12.0040   -7.0537 H   0  0  0  0  0  0  0  0  0  0  0  0
   -2.6581    9.7501   -8.0474 H   0  0  0  0  0  0  0  0  0  0  0  0
   -6.7366   12.3128   -6.9153 H   0  0  0  0  0  0  0  0  0  0  0  0
   -5.4700   14.1039   -6.1424 H   0  0  0  0  0  0  0  0  0  0  0  0
   -3.9148   13.6392   -5.3732 H   0  0  0  0  0  0  0  0  0  0  0  0
   -3.9239   14.3505   -7.0227 H   0  0  0  0  0  0  0  0  0  0  0  0
  1  2  1  0  0  0  0
  1  3  1  0  0  0  0
  1  4  1  0  0  0  0
  2  5  1  0  0  0  0
  3  6  1  0  0  0  0
  5  6  1  0  0  0  0
  6 12  1  0  0  0  0
  7  8  1  0  0  0  0
  7 10  1  0  0  0  0
  7 12  1  0  0  0  0
  8  9  1  0  0  0  0
  8 11  2  0  0  0  0
  9 15  2  0  0  0  0
 10 14  2  0  0  0  0
 12 13  2  0  0  0  0
 14 15  1  0  0  0  0
 14 18  1  0  0  0  0
 15 16  1  0  0  0  0
 16 17  2  0  0  0  0
 17 18  1  0  0  0  0
 18 19  2  0  0  0  0
 19 20  1  0  0  0  0
 20 21  1  0  0  0  0
 20 25  1  0  0  0  0
 21 24  1  0  0  0  0
 22 23  1  0  0  0  0
 22 24  2  0  0  0  0
 23 25  2  0  0  0  0
 23 26  1  0  0  0  0
  1 27  1  0  0  0  0
  2 28  1  0  0  0  0
  2 29  1  0  0  0  0
  3 30  1  0  0  0  0
  3 31  1  0  0  0  0
  4 32  1  0  0  0  0
  5 33  1  0  0  0  0
  5 34  1  0  0  0  0
  7 35  1  0  0  0  0
  9 36  1  0  0  0  0
 10 37  1  0  0  0  0
 19 38  1  0  0  0  0
 20 39  1  0  0  0  0
 21 40  1  0  0  0  0
 21 41  1  0  0  0  0
 22 42  1  0  0  0  0
 24 43  1  0  0  0  0
 25 44  1  0  0  0  0
 26 45  1  0  0  0  0
 26 46  1  0  0  0  0
 26 47  1  0  0  0  0
M  END
> <Name>
13

> <IC50[uM]>
0.006

$$$$
13
  -OEChem-05192314333D
 Structure written by MMmdl.
 47 50  0     1  0  0  0  0  0999 V2000
   -2.2088   12.9419  -10.9697 C   0  0  1  0  0  0  0  0  0  0  0  0
   -2.1904   14.4671  -10.9424 C   0  0  0  0  0  0  0  0  0  0  0  0
   -3.6992   12.5876  -10.8377 C   0  0  0  0  0  0  0  0  0  0  0  0
   -1.6826   12.4744  -12.1795 O   0  0  0  0  0  0  0  0  0  0  0  0
   -3.5107   14.9139  -11.6089 C   0  0  0  0  0  0  0  0  0  0  0  0
   -4.3443   13.7200  -11.5243 N   0  0  0  0  0  0  0  0  0  0  0  0
   -6.3525   12.3601  -12.0338 C   0  0  0  0  0  0  0  0  0  0  0  0
   -6.9727   11.7556  -13.1375 C   0  0  0  0  0  0  0  0  0  0  0  0
   -7.7097   10.5633  -13.0339 C   0  0  0  0  0  0  0  0  0  0  0  0
   -6.5001   11.8056  -10.7491 C   0  0  0  0  0  0  0  0  0  0  0  0
   -6.8506   12.3073  -14.3824 O   0  0  0  0  0  0  0  0  0  0  0  0
   -5.5377   13.6382  -12.2001 C   0  0  0  0  0  0  0  0  0  0  0  0
   -5.9500   14.5444  -12.9177 O   0  0  0  0  0  0  0  0  0  0  0  0
   -7.2308   10.6159  -10.6131 C   0  0  0  0  0  0  0  0  0  0  0  0
   -7.8083   10.0113  -11.7524 C   0  0  0  0  0  0  0  0  0  0  0  0
   -8.4200    8.8675  -11.2880 N   0  0  0  0  0  0  0  0  0  0  0  0
   -8.2847    8.7400   -9.9757 N   0  0  0  0  0  0  0  0  0  0  0  0
   -7.6047    9.7473   -9.5145 C   0  0  0  0  0  0  0  0  0  0  0  0
   -7.3264    9.8951   -8.0245 C   0  0  0  0  0  0  0  0  0  0  0  0
   -5.9604   10.4805   -7.7353 C   0  0  0  0  0  0  0  0  0  0  0  0
   -4.8075    9.7596   -8.0491 C   0  0  0  0  0  0  0  0  0  0  0  0
   -3.4358   11.5809   -7.2415 C   0  0  0  0  0  0  0  0  0  0  0  0
   -4.5835   12.3061   -6.9225 C   0  0  0  0  0  0  0  0  0  0  0  0
   -3.5481   10.3107   -7.8024 C   0  0  0  0  0  0  0  0  0  0  0  0
   -5.8471   11.7541   -7.1666 C   0  0  0  0  0  0  0  0  0  0  0  0
   -4.4650   13.6954   -6.3241 C   0  0  0  0  0  0  0  0  0  0  0  0
   -1.6558   12.5461  -10.1051 H   0  0  0  0  0  0  0  0  0  0  0  0
   -2.1418   14.8314   -9.9056 H   0  0  0  0  0  0  0  0  0  0  0  0
   -1.3273   14.8503  -11.5065 H   0  0  0  0  0  0  0  0  0  0  0  0
   -3.9292   11.6343  -11.3361 H   0  0  0  0  0  0  0  0  0  0  0  0
   -4.0052   12.5329   -9.7825 H   0  0  0  0  0  0  0  0  0  0  0  0
   -1.6986   11.5246  -12.1863 H   0  0  0  0  0  0  0  0  0  0  0  0
   -3.9654   15.7526  -11.0614 H   0  0  0  0  0  0  0  0  0  0  0  0
   -3.3451   15.2065  -12.6563 H   0  0  0  0  0  0  0  0  0  0  0  0
   -8.1726   10.1006  -13.8930 H   0  0  0  0  0  0  0  0  0  0  0  0
   -6.0607   12.2852   -9.8870 H   0  0  0  0  0  0  0  0  0  0  0  0
   -6.3117   10.0311  -10.7657 H   0  0  0  0  0  0  0  0  0  0  0  0
   -8.0295    9.6121   -7.2551 H   0  0  0  0  0  0  0  0  0  0  0  0
   -4.8582    8.8181   -7.4825 H   0  0  0  0  0  0  0  0  0  0  0  0
   -4.8529    9.5421   -9.1264 H   0  0  0  0  0  0  0  0  0  0  0  0
   -2.4600   12.0040   -7.0537 H   0  0  0  0  0  0  0  0  0  0  0  0
   -4.5836   11.8682   -5.9134 H   0  0  0  0  0  0  0  0  0  0  0  0
   -2.6581    9.7501   -8.0474 H   0  0  0  0  0  0  0  0  0  0  0  0
   -6.7366   12.3128   -6.9153 H   0  0  0  0  0  0  0  0  0  0  0  0
   -5.4700   14.1039   -6.1424 H   0  0  0  0  0  0  0  0  0  0  0  0
   -3.9148   13.6392   -5.3732 H   0  0  0  0  0  0  0  0  0  0  0  0
   -3.9239   14.3505   -7.0227 H   0  0  0  0  0  0  0  0  0  0  0  0
  1  2  1  0  0  0  0
  1  3  1  0  0  0  0
  1  4  1  0  0  0  0
  2  5  1  0  0  0  0
  3  6  1  0  0  0  0
  5  6  1  0  0  0  0
  6 12  1  0  0  0  0
  7  8  1  0  0  0  0
  7 10  2  0  0  0  0
  7 12  1  0  0  0  0
  8  9  1  0  0  0  0
  8 11  2  0  0  0  0
  9 15  2  0  0  0  0
 10 14  1  0  0  0  0
 12 13  2  0  0  0  0
 14 15  1  0  0  0  0
 14 18  1  0  0  0  0
 15 16  1  0  0  0  0
 16 17  2  0  0  0  0
 17 18  1  0  0  0  0
 18 19  2  0  0  0  0
 19 20  1  0  0  0  0
 20 21  1  0  0  0  0
 20 25  2  0  0  0  0
 21 24  1  0  0  0  0
 22 23  1  0  0  0  0
 22 24  2  0  0  0  0
 23 25  1  0  0  0  0
 23 26  1  0  0  0  0
  1 27  1  0  0  0  0
  2 28  1  0  0  0  0
  2 29  1  0  0  0  0
  3 30  1  0  0  0  0
  3 31  1  0  0  0  0
  4 32  1  0  0  0  0
  5 33  1  0  0  0  0
  5 34  1  0  0  0  0
  9 35  1  0  0  0  0
 10 36  1  0  0  0  0
 14 37  1  0  0  0  0
 19 38  1  0  0  0  0
 21 39  1  0  0  0  0
 21 40  1  0  0  0  0
 22 41  1  0  0  0  0
 23 42  1  0  0  0  0
 24 43  1  0  0  0  0
 25 44  1  0  0  0  0
 26 45  1  0  0  0  0
 26 46  1  0  0  0  0
 26 47  1  0  0  0  0
M  END
> <Name>
13

> <IC50[uM]>
0.006

$$$$
13
  -OEChem-05192314333D
 Structure written by MMmdl.
 47 50  0     1  0  0  0  0  0999 V2000
   -2.2088   12.9419  -10.9697 C   0  0  1  0  0  0  0  0  0  0  0  0
   -2.1904   14.4671  -10.9424 C   0  0  0  0  0  0  0  0  0  0  0  0
   -3.6992   12.5876  -10.8377 C   0  0  0  0  0  0  0  0  0  0  0  0
   -1.6826   12.4744  -12.1795 O   0  0  0  0  0  0  0  0  0  0  0  0
   -3.5107   14.9139  -11.6089 C   0  0  0  0  0  0  0  0  0  0  0  0
   -4.3443   13.7200  -11.5243 N   0  0  0  0  0  0  0  0  0  0  0  0
   -6.3525   12.3601  -12.0338 C   0  0  0  0  0  0  0  0  0  0  0  0
   -6.9727   11.7556  -13.1375 C   0  0  0  0  0  0  0  0  0  0  0  0
   -7.7097   10.5633  -13.0339 C   0  0  0  0  0  0  0  0  0  0  0  0
   -6.5001   11.8056  -10.7491 C   0  0  0  0  0  0  0  0  0  0  0  0
   -6.8506   12.3073  -14.3824 O   0  0  0  0  0  0  0  0  0  0  0  0
   -5.5377   13.6382  -12.2001 C   0  0  0  0  0  0  0  0  0  0  0  0
   -5.9500   14.5444  -12.9177 O   0  0  0  0  0  0  0  0  0  0  0  0
   -7.2308   10.6159  -10.6131 C   0  0  0  0  0  0  0  0  0  0  0  0
   -7.8083   10.0113  -11.7524 C   0  0  0  0  0  0  0  0  0  0  0  0
   -8.4200    8.8675  -11.2880 N   0  0  0  0  0  0  0  0  0  0  0  0
   -8.2847    8.7400   -9.9757 N   0  0  0  0  0  0  0  0  0  0  0  0
   -7.6047    9.7473   -9.5145 C   0  0  0  0  0  0  0  0  0  0  0  0
   -7.3264    9.8951   -8.0245 C   0  0  0  0  0  0  0  0  0  0  0  0
   -5.9604   10.4805   -7.7353 C   0  0  0  0  0  0  0  0  0  0  0  0
   -4.8075    9.7596   -8.0491 C   0  0  0  0  0  0  0  0  0  0  0  0
   -3.4358   11.5809   -7.2415 C   0  0  0  0  0  0  0  0  0  0  0  0
   -4.5835   12.3061   -6.9225 C   0  0  0  0  0  0  0  0  0  0  0  0
   -3.5481   10.3107   -7.8024 C   0  0  0  0  0  0  0  0  0  0  0  0
   -5.8471   11.7541   -7.1666 C   0  0  0  0  0  0  0  0  0  0  0  0
   -4.4650   13.6954   -6.3241 C   0  0  0  0  0  0  0  0  0  0  0  0
   -1.6558   12.5461  -10.1051 H   0  0  0  0  0  0  0  0  0  0  0  0
   -2.1418   14.8314   -9.9056 H   0  0  0  0  0  0  0  0  0  0  0  0
   -1.3273   14.8503  -11.5065 H   0  0  0  0  0  0  0  0  0  0  0  0
   -3.9292   11.6343  -11.3361 H   0  0  0  0  0  0  0  0  0  0  0  0
   -4.0052   12.5329   -9.7825 H   0  0  0  0  0  0  0  0  0  0  0  0
   -1.6986   11.5246  -12.1863 H   0  0  0  0  0  0  0  0  0  0  0  0
   -3.9654   15.7526  -11.0614 H   0  0  0  0  0  0  0  0  0  0  0  0
   -3.3451   15.2065  -12.6563 H   0  0  0  0  0  0  0  0  0  0  0  0
   -8.1726   10.1006  -13.8930 H   0  0  0  0  0  0  0  0  0  0  0  0
   -6.0607   12.2852   -9.8870 H   0  0  0  0  0  0  0  0  0  0  0  0
   -6.3117   10.0311  -10.7657 H   0  0  0  0  0  0  0  0  0  0  0  0
   -8.0295    9.6121   -7.2551 H   0  0  0  0  0  0  0  0  0  0  0  0
   -5.9749   10.0291   -6.7323 H   0  0  0  0  0  0  0  0  0  0  0  0
   -4.8582    8.8181   -7.4825 H   0  0  0  0  0  0  0  0  0  0  0  0
   -4.8529    9.5421   -9.1264 H   0  0  0  0  0  0  0  0  0  0  0  0
   -2.4600   12.0040   -7.0537 H   0  0  0  0  0  0  0  0  0  0  0  0
   -2.6581    9.7501   -8.0474 H   0  0  0  0  0  0  0  0  0  0  0  0
   -6.7366   12.3128   -6.9153 H   0  0  0  0  0  0  0  0  0  0  0  0
   -5.4700   14.1039   -6.1424 H   0  0  0  0  0  0  0  0  0  0  0  0
   -3.9148   13.6392   -5.3732 H   0  0  0  0  0  0  0  0  0  0  0  0
   -3.9239   14.3505   -7.0227 H   0  0  0  0  0  0  0  0  0  0  0  0
  1  2  1  0  0  0  0
  1  3  1  0  0  0  0
  1  4  1  0  0  0  0
  2  5  1  0  0  0  0
  3  6  1  0  0  0  0
  5  6  1  0  0  0  0
  6 12  1  0  0  0  0
  7  8  1  0  0  0  0
  7 10  2  0  0  0  0
  7 12  1  0  0  0  0
  8  9  1  0  0  0  0
  8 11  2  0  0  0  0
  9 15  2  0  0  0  0
 10 14  1  0  0  0  0
 12 13  2  0  0  0  0
 14 15  1  0  0  0  0
 14 18  1  0  0  0  0
 15 16  1  0  0  0  0
 16 17  2  0  0  0  0
 17 18  1  0  0  0  0
 18 19  2  0  0  0  0
 19 20  1  0  0  0  0
 20 21  1  0  0  0  0
 20 25  1  0  0  0  0
 21 24  1  0  0  0  0
 22 23  1  0  0  0  0
 22 24  2  0  0  0  0
 23 25  2  0  0  0  0
 23 26  1  0  0  0  0
  1 27  1  0  0  0  0
  2 28  1  0  0  0  0
  2 29  1  0  0  0  0
  3 30  1  0  0  0  0
  3 31  1  0  0  0  0
  4 32  1  0  0  0  0
  5 33  1  0  0  0  0
  5 34  1  0  0  0  0
  9 35  1  0  0  0  0
 10 36  1  0  0  0  0
 14 37  1  0  0  0  0
 19 38  1  0  0  0  0
 20 39  1  0  0  0  0
 21 40  1  0  0  0  0
 21 41  1  0  0  0  0
 22 42  1  0  0  0  0
 24 43  1  0  0  0  0
 25 44  1  0  0  0  0
 26 45  1  0  0  0  0
 26 46  1  0  0  0  0
 26 47  1  0  0  0  0
M  END
> <Name>
13

> <IC50[uM]>
0.006

$$$$
13
  -OEChem-05192314333D
 Structure written by MMmdl.
 47 50  0     1  0  0  0  0  0999 V2000
   -2.2088   12.9419  -10.9697 C   0  0  1  0  0  0  0  0  0  0  0  0
   -2.1904   14.4671  -10.9424 C   0  0  0  0  0  0  0  0  0  0  0  0
   -3.6992   12.5876  -10.8377 C   0  0  0  0  0  0  0  0  0  0  0  0
   -1.6826   12.4744  -12.1795 O   0  0  0  0  0  0  0  0  0  0  0  0
   -3.5107   14.9139  -11.6089 C   0  0  0  0  0  0  0  0  0  0  0  0
   -4.3443   13.7200  -11.5243 N   0  0  0  0  0  0  0  0  0  0  0  0
   -6.3525   12.3601  -12.0338 C   0  0  0  0  0  0  0  0  0  0  0  0
   -6.9727   11.7556  -13.1375 C   0  0  0  0  0  0  0  0  0  0  0  0
   -7.7097   10.5633  -13.0339 C   0  0  0  0  0  0  0  0  0  0  0  0
   -6.5001   11.8056  -10.7491 C   0  0  0  0  0  0  0  0  0  0  0  0
   -6.8506   12.3073  -14.3824 O   0  0  0  0  0  0  0  0  0  0  0  0
   -5.5377   13.6382  -12.2001 C   0  0  0  0  0  0  0  0  0  0  0  0
   -5.9500   14.5444  -12.9177 O   0  0  0  0  0  0  0  0  0  0  0  0
   -7.2308   10.6159  -10.6131 C   0  0  0  0  0  0  0  0  0  0  0  0
   -7.8083   10.0113  -11.7524 C   0  0  0  0  0  0  0  0  0  0  0  0
   -8.4200    8.8675  -11.2880 N   0  0  0  0  0  0  0  0  0  0  0  0
   -8.2847    8.7400   -9.9757 N   0  0  0  0  0  0  0  0  0  0  0  0
   -7.6047    9.7473   -9.5145 C   0  0  0  0  0  0  0  0  0  0  0  0
   -7.3264    9.8951   -8.0245 C   0  0  0  0  0  0  0  0  0  0  0  0
   -5.9604   10.4805   -7.7353 C   0  0  0  0  0  0  0  0  0  0  0  0
   -4.8075    9.7596   -8.0491 C   0  0  0  0  0  0  0  0  0  0  0  0
   -3.4358   11.5809   -7.2415 C   0  0  0  0  0  0  0  0  0  0  0  0
   -4.5835   12.3061   -6.9225 C   0  0  0  0  0  0  0  0  0  0  0  0
   -3.5481   10.3107   -7.8024 C   0  0  0  0  0  0  0  0  0  0  0  0
   -5.8471   11.7541   -7.1666 C   0  0  0  0  0  0  0  0  0  0  0  0
   -4.4650   13.6954   -6.3241 C   0  0  0  0  0  0  0  0  0  0  0  0
   -1.6558   12.5461  -10.1051 H   0  0  0  0  0  0  0  0  0  0  0  0
   -2.1418   14.8314   -9.9056 H   0  0  0  0  0  0  0  0  0  0  0  0
   -1.3273   14.8503  -11.5065 H   0  0  0  0  0  0  0  0  0  0  0  0
   -3.9292   11.6343  -11.3361 H   0  0  0  0  0  0  0  0  0  0  0  0
   -4.0052   12.5329   -9.7825 H   0  0  0  0  0  0  0  0  0  0  0  0
   -1.6986   11.5246  -12.1863 H   0  0  0  0  0  0  0  0  0  0  0  0
   -3.9654   15.7526  -11.0614 H   0  0  0  0  0  0  0  0  0  0  0  0
   -3.3451   15.2065  -12.6563 H   0  0  0  0  0  0  0  0  0  0  0  0
   -5.4494   11.7544  -12.1998 H   0  0  0  0  0  0  0  0  0  0  0  0
   -8.1726   10.1006  -13.8930 H   0  0  0  0  0  0  0  0  0  0  0  0
   -6.0607   12.2852   -9.8870 H   0  0  0  0  0  0  0  0  0  0  0  0
   -6.6702    9.1804   -9.6379 H   0  0  0  0  0  0  0  0  0  0  0  0
   -8.0295    9.6121   -7.2551 H   0  0  0  0  0  0  0  0  0  0  0  0
   -4.8582    8.8181   -7.4825 H   0  0  0  0  0  0  0  0  0  0  0  0
   -4.8529    9.5421   -9.1264 H   0  0  0  0  0  0  0  0  0  0  0  0
   -2.4600   12.0040   -7.0537 H   0  0  0  0  0  0  0  0  0  0  0  0
   -2.6581    9.7501   -8.0474 H   0  0  0  0  0  0  0  0  0  0  0  0
   -6.7366   12.3128   -6.9153 H   0  0  0  0  0  0  0  0  0  0  0  0
   -5.4700   14.1039   -6.1424 H   0  0  0  0  0  0  0  0  0  0  0  0
   -3.9148   13.6392   -5.3732 H   0  0  0  0  0  0  0  0  0  0  0  0
   -3.9239   14.3505   -7.0227 H   0  0  0  0  0  0  0  0  0  0  0  0
  1  2  1  0  0  0  0
  1  3  1  0  0  0  0
  1  4  1  0  0  0  0
  2  5  1  0  0  0  0
  3  6  1  0  0  0  0
  5  6  1  0  0  0  0
  6 12  1  0  0  0  0
  7  8  1  0  0  0  0
  7 10  1  0  0  0  0
  7 12  1  0  0  0  0
  8  9  1  0  0  0  0
  8 11  2  0  0  0  0
  9 15  2  0  0  0  0
 10 14  2  0  0  0  0
 12 13  2  0  0  0  0
 14 15  1  0  0  0  0
 14 18  1  0  0  0  0
 15 16  1  0  0  0  0
 16 17  2  0  0  0  0
 17 18  1  0  0  0  0
 18 19  1  0  0  0  0
 19 20  2  0  0  0  0
 20 21  1  0  0  0  0
 20 25  1  0  0  0  0
 21 24  1  0  0  0  0
 22 23  1  0  0  0  0
 22 24  2  0  0  0  0
 23 25  2  0  0  0  0
 23 26  1  0  0  0  0
  1 27  1  0  0  0  0
  2 28  1  0  0  0  0
  2 29  1  0  0  0  0
  3 30  1  0  0  0  0
  3 31  1  0  0  0  0
  4 32  1  0  0  0  0
  5 33  1  0  0  0  0
  5 34  1  0  0  0  0
  7 35  1  0  0  0  0
  9 36  1  0  0  0  0
 10 37  1  0  0  0  0
 18 38  1  0  0  0  0
 19 39  1  0  0  0  0
 21 40  1  0  0  0  0
 21 41  1  0  0  0  0
 22 42  1  0  0  0  0
 24 43  1  0  0  0  0
 25 44  1  0  0  0  0
 26 45  1  0  0  0  0
 26 46  1  0  0  0  0
 26 47  1  0  0  0  0
M  END
> <Name>
13

> <IC50[uM]>
0.006

$$$$
13
  -OEChem-05192314333D
 Structure written by MMmdl.
 47 50  0     1  0  0  0  0  0999 V2000
   -2.2088   12.9419  -10.9697 C   0  0  1  0  0  0  0  0  0  0  0  0
   -2.1904   14.4671  -10.9424 C   0  0  0  0  0  0  0  0  0  0  0  0
   -3.6992   12.5876  -10.8377 C   0  0  0  0  0  0  0  0  0  0  0  0
   -1.6826   12.4744  -12.1795 O   0  0  0  0  0  0  0  0  0  0  0  0
   -3.5107   14.9139  -11.6089 C   0  0  0  0  0  0  0  0  0  0  0  0
   -4.3443   13.7200  -11.5243 N   0  0  0  0  0  0  0  0  0  0  0  0
   -6.3525   12.3601  -12.0338 C   0  0  0  0  0  0  0  0  0  0  0  0
   -6.9727   11.7556  -13.1375 C   0  0  0  0  0  0  0  0  0  0  0  0
   -7.7097   10.5633  -13.0339 C   0  0  0  0  0  0  0  0  0  0  0  0
   -6.5001   11.8056  -10.7491 C   0  0  0  0  0  0  0  0  0  0  0  0
   -6.8506   12.3073  -14.3824 O   0  0  0  0  0  0  0  0  0  0  0  0
   -5.5377   13.6382  -12.2001 C   0  0  0  0  0  0  0  0  0  0  0  0
   -5.9500   14.5444  -12.9177 O   0  0  0  0  0  0  0  0  0  0  0  0
   -7.2308   10.6159  -10.6131 C   0  0  0  0  0  0  0  0  0  0  0  0
   -7.8083   10.0113  -11.7524 C   0  0  0  0  0  0  0  0  0  0  0  0
   -8.4200    8.8675  -11.2880 N   0  0  0  0  0  0  0  0  0  0  0  0
   -8.2847    8.7400   -9.9757 N   0  0  0  0  0  0  0  0  0  0  0  0
   -7.6047    9.7473   -9.5145 C   0  0  0  0  0  0  0  0  0  0  0  0
   -7.3264    9.8951   -8.0245 C   0  0  0  0  0  0  0  0  0  0  0  0
   -5.9604   10.4805   -7.7353 C   0  0  0  0  0  0  0  0  0  0  0  0
   -4.8075    9.7596   -8.0491 C   0  0  0  0  0  0  0  0  0  0  0  0
   -3.4358   11.5809   -7.2415 C   0  0  0  0  0  0  0  0  0  0  0  0
   -4.5835   12.3061   -6.9225 C   0  0  0  0  0  0  0  0  0  0  0  0
   -3.5481   10.3107   -7.8024 C   0  0  0  0  0  0  0  0  0  0  0  0
   -5.8471   11.7541   -7.1666 C   0  0  0  0  0  0  0  0  0  0  0  0
   -4.4650   13.6954   -6.3241 C   0  0  0  0  0  0  0  0  0  0  0  0
   -1.6558   12.5461  -10.1051 H   0  0  0  0  0  0  0  0  0  0  0  0
   -2.1418   14.8314   -9.9056 H   0  0  0  0  0  0  0  0  0  0  0  0
   -1.3273   14.8503  -11.5065 H   0  0  0  0  0  0  0  0  0  0  0  0
   -3.9292   11.6343  -11.3361 H   0  0  0  0  0  0  0  0  0  0  0  0
   -4.0052   12.5329   -9.7825 H   0  0  0  0  0  0  0  0  0  0  0  0
   -1.6986   11.5246  -12.1863 H   0  0  0  0  0  0  0  0  0  0  0  0
   -3.9654   15.7526  -11.0614 H   0  0  0  0  0  0  0  0  0  0  0  0
   -3.3451   15.2065  -12.6563 H   0  0  0  0  0  0  0  0  0  0  0  0
   -8.1726   10.1006  -13.8930 H   0  0  0  0  0  0  0  0  0  0  0  0
   -6.0607   12.2852   -9.8870 H   0  0  0  0  0  0  0  0  0  0  0  0
   -6.3117   10.0311  -10.7657 H   0  0  0  0  0  0  0  0  0  0  0  0
   -6.6702    9.1804   -9.6379 H   0  0  0  0  0  0  0  0  0  0  0  0
   -8.0295    9.6121   -7.2551 H   0  0  0  0  0  0  0  0  0  0  0  0
   -4.8582    8.8181   -7.4825 H   0  0  0  0  0  0  0  0  0  0  0  0
   -4.8529    9.5421   -9.1264 H   0  0  0  0  0  0  0  0  0  0  0  0
   -2.4600   12.0040   -7.0537 H   0  0  0  0  0  0  0  0  0  0  0  0
   -2.6581    9.7501   -8.0474 H   0  0  0  0  0  0  0  0  0  0  0  0
   -6.7366   12.3128   -6.9153 H   0  0  0  0  0  0  0  0  0  0  0  0
   -5.4700   14.1039   -6.1424 H   0  0  0  0  0  0  0  0  0  0  0  0
   -3.9148   13.6392   -5.3732 H   0  0  0  0  0  0  0  0  0  0  0  0
   -3.9239   14.3505   -7.0227 H   0  0  0  0  0  0  0  0  0  0  0  0
  1  2  1  0  0  0  0
  1  3  1  0  0  0  0
  1  4  1  0  0  0  0
  2  5  1  0  0  0  0
  3  6  1  0  0  0  0
  5  6  1  0  0  0  0
  6 12  1  0  0  0  0
  7  8  1  0  0  0  0
  7 10  2  0  0  0  0
  7 12  1  0  0  0  0
  8  9  1  0  0  0  0
  8 11  2  0  0  0  0
  9 15  2  0  0  0  0
 10 14  1  0  0  0  0
 12 13  2  0  0  0  0
 14 15  1  0  0  0  0
 14 18  1  0  0  0  0
 15 16  1  0  0  0  0
 16 17  2  0  0  0  0
 17 18  1  0  0  0  0
 18 19  1  0  0  0  0
 19 20  2  0  0  0  0
 20 21  1  0  0  0  0
 20 25  1  0  0  0  0
 21 24  1  0  0  0  0
 22 23  1  0  0  0  0
 22 24  2  0  0  0  0
 23 25  2  0  0  0  0
 23 26  1  0  0  0  0
  1 27  1  0  0  0  0
  2 28  1  0  0  0  0
  2 29  1  0  0  0  0
  3 30  1  0  0  0  0
  3 31  1  0  0  0  0
  4 32  1  0  0  0  0
  5 33  1  0  0  0  0
  5 34  1  0  0  0  0
  9 35  1  0  0  0  0
 10 36  1  0  0  0  0
 14 37  1  0  0  0  0
 18 38  1  0  0  0  0
 19 39  1  0  0  0  0
 21 40  1  0  0  0  0
 21 41  1  0  0  0  0
 22 42  1  0  0  0  0
 24 43  1  0  0  0  0
 25 44  1  0  0  0  0
 26 45  1  0  0  0  0
 26 46  1  0  0  0  0
 26 47  1  0  0  0  0
M  END
> <Name>
13

> <IC50[uM]>
0.006

$$$$
13
  -OEChem-05192314333D
 Structure written by MMmdl.
 47 50  0     1  0  0  0  0  0999 V2000
   -2.2088   12.9419  -10.9697 C   0  0  1  0  0  0  0  0  0  0  0  0
   -2.1904   14.4671  -10.9424 C   0  0  0  0  0  0  0  0  0  0  0  0
   -3.6992   12.5876  -10.8377 C   0  0  0  0  0  0  0  0  0  0  0  0
   -1.6826   12.4744  -12.1795 O   0  0  0  0  0  0  0  0  0  0  0  0
   -3.5107   14.9139  -11.6089 C   0  0  0  0  0  0  0  0  0  0  0  0
   -4.3443   13.7200  -11.5243 N   0  0  0  0  0  0  0  0  0  0  0  0
   -6.3525   12.3601  -12.0338 C   0  0  0  0  0  0  0  0  0  0  0  0
   -6.9727   11.7556  -13.1375 C   0  0  0  0  0  0  0  0  0  0  0  0
   -7.7097   10.5633  -13.0339 C   0  0  0  0  0  0  0  0  0  0  0  0
   -6.5001   11.8056  -10.7491 C   0  0  0  0  0  0  0  0  0  0  0  0
   -6.8506   12.3073  -14.3824 O   0  0  0  0  0  0  0  0  0  0  0  0
   -5.5377   13.6382  -12.2001 C   0  0  0  0  0  0  0  0  0  0  0  0
   -5.9500   14.5444  -12.9177 O   0  0  0  0  0  0  0  0  0  0  0  0
   -7.2308   10.6159  -10.6131 C   0  0  0  0  0  0  0  0  0  0  0  0
   -7.8083   10.0113  -11.7524 C   0  0  0  0  0  0  0  0  0  0  0  0
   -8.4200    8.8675  -11.2880 N   0  0  0  0  0  0  0  0  0  0  0  0
   -8.2847    8.7400   -9.9757 N   0  0  0  0  0  0  0  0  0  0  0  0
   -7.6047    9.7473   -9.5145 C   0  0  0  0  0  0  0  0  0  0  0  0
   -7.3264    9.8951   -8.0245 C   0  0  0  0  0  0  0  0  0  0  0  0
   -5.9604   10.4805   -7.7353 C   0  0  0  0  0  0  0  0  0  0  0  0
   -4.8075    9.7596   -8.0491 C   0  0  0  0  0  0  0  0  0  0  0  0
   -3.4358   11.5809   -7.2415 C   0  0  0  0  0  0  0  0  0  0  0  0
   -4.5835   12.3061   -6.9225 C   0  0  0  0  0  0  0  0  0  0  0  0
   -3.5481   10.3107   -7.8024 C   0  0  0  0  0  0  0  0  0  0  0  0
   -5.8471   11.7541   -7.1666 C   0  0  0  0  0  0  0  0  0  0  0  0
   -4.4650   13.6954   -6.3241 C   0  0  0  0  0  0  0  0  0  0  0  0
   -1.6558   12.5461  -10.1051 H   0  0  0  0  0  0  0  0  0  0  0  0
   -2.1418   14.8314   -9.9056 H   0  0  0  0  0  0  0  0  0  0  0  0
   -1.3273   14.8503  -11.5065 H   0  0  0  0  0  0  0  0  0  0  0  0
   -3.9292   11.6343  -11.3361 H   0  0  0  0  0  0  0  0  0  0  0  0
   -4.0052   12.5329   -9.7825 H   0  0  0  0  0  0  0  0  0  0  0  0
   -1.6986   11.5246  -12.1863 H   0  0  0  0  0  0  0  0  0  0  0  0
   -3.9654   15.7526  -11.0614 H   0  0  0  0  0  0  0  0  0  0  0  0
   -3.3451   15.2065  -12.6563 H   0  0  0  0  0  0  0  0  0  0  0  0
   -5.4494   11.7544  -12.1998 H   0  0  0  0  0  0  0  0  0  0  0  0
   -8.1726   10.1006  -13.8930 H   0  0  0  0  0  0  0  0  0  0  0  0
   -6.0607   12.2852   -9.8870 H   0  0  0  0  0  0  0  0  0  0  0  0
   -8.0295    9.6121   -7.2551 H   0  0  0  0  0  0  0  0  0  0  0  0
   -4.8582    8.8181   -7.4825 H   0  0  0  0  0  0  0  0  0  0  0  0
   -4.8529    9.5421   -9.1264 H   0  0  0  0  0  0  0  0  0  0  0  0
   -2.4600   12.0040   -7.0537 H   0  0  0  0  0  0  0  0  0  0  0  0
   -3.0270    9.6184   -7.1248 H   0  0  0  0  0  0  0  0  0  0  0  0
   -3.0225   10.3437   -8.7681 H   0  0  0  0  0  0  0  0  0  0  0  0
   -6.7366   12.3128   -6.9153 H   0  0  0  0  0  0  0  0  0  0  0  0
   -5.4700   14.1039   -6.1424 H   0  0  0  0  0  0  0  0  0  0  0  0
   -3.9148   13.6392   -5.3732 H   0  0  0  0  0  0  0  0  0  0  0  0
   -3.9239   14.3505   -7.0227 H   0  0  0  0  0  0  0  0  0  0  0  0
  1  2  1  0  0  0  0
  1  3  1  0  0  0  0
  1  4  1  0  0  0  0
  2  5  1  0  0  0  0
  3  6  1  0  0  0  0
  5  6  1  0  0  0  0
  6 12  1  0  0  0  0
  7  8  1  0  0  0  0
  7 10  1  0  0  0  0
  7 12  1  0  0  0  0
  8  9  1  0  0  0  0
  8 11  2  0  0  0  0
  9 15  2  0  0  0  0
 10 14  2  0  0  0  0
 12 13  2  0  0  0  0
 14 15  1  0  0  0  0
 14 18  1  0  0  0  0
 15 16  1  0  0  0  0
 16 17  2  0  0  0  0
 17 18  1  0  0  0  0
 18 19  2  0  0  0  0
 19 20  1  0  0  0  0
 20 21  1  0  0  0  0
 20 25  2  0  0  0  0
 21 24  1  0  0  0  0
 22 23  2  0  0  0  0
 22 24  1  0  0  0  0
 23 25  1  0  0  0  0
 23 26  1  0  0  0  0
  1 27  1  0  0  0  0
  2 28  1  0  0  0  0
  2 29  1  0  0  0  0
  3 30  1  0  0  0  0
  3 31  1  0  0  0  0
  4 32  1  0  0  0  0
  5 33  1  0  0  0  0
  5 34  1  0  0  0  0
  7 35  1  0  0  0  0
  9 36  1  0  0  0  0
 10 37  1  0  0  0  0
 19 38  1  0  0  0  0
 21 39  1  0  0  0  0
 21 40  1  0  0  0  0
 22 41  1  0  0  0  0
 24 42  1  0  0  0  0
 24 43  1  0  0  0  0
 25 44  1  0  0  0  0
 26 45  1  0  0  0  0
 26 46  1  0  0  0  0
 26 47  1  0  0  0  0
M  END
> <Name>
13

> <IC50[uM]>
0.006

$$$$
13
  -OEChem-05192314333D
 Structure written by MMmdl.
 47 50  0     1  0  0  0  0  0999 V2000
   -2.2088   12.9419  -10.9697 C   0  0  1  0  0  0  0  0  0  0  0  0
   -2.1904   14.4671  -10.9424 C   0  0  0  0  0  0  0  0  0  0  0  0
   -3.6992   12.5876  -10.8377 C   0  0  0  0  0  0  0  0  0  0  0  0
   -1.6826   12.4744  -12.1795 O   0  0  0  0  0  0  0  0  0  0  0  0
   -3.5107   14.9139  -11.6089 C   0  0  0  0  0  0  0  0  0  0  0  0
   -4.3443   13.7200  -11.5243 N   0  0  0  0  0  0  0  0  0  0  0  0
   -6.3525   12.3601  -12.0338 C   0  0  0  0  0  0  0  0  0  0  0  0
   -6.9727   11.7556  -13.1375 C   0  0  0  0  0  0  0  0  0  0  0  0
   -7.7097   10.5633  -13.0339 C   0  0  0  0  0  0  0  0  0  0  0  0
   -6.5001   11.8056  -10.7491 C   0  0  0  0  0  0  0  0  0  0  0  0
   -6.8506   12.3073  -14.3824 O   0  0  0  0  0  0  0  0  0  0  0  0
   -5.5377   13.6382  -12.2001 C   0  0  0  0  0  0  0  0  0  0  0  0
   -5.9500   14.5444  -12.9177 O   0  0  0  0  0  0  0  0  0  0  0  0
   -7.2308   10.6159  -10.6131 C   0  0  0  0  0  0  0  0  0  0  0  0
   -7.8083   10.0113  -11.7524 C   0  0  0  0  0  0  0  0  0  0  0  0
   -8.4200    8.8675  -11.2880 N   0  0  0  0  0  0  0  0  0  0  0  0
   -8.2847    8.7400   -9.9757 N   0  0  0  0  0  0  0  0  0  0  0  0
   -7.6047    9.7473   -9.5145 C   0  0  0  0  0  0  0  0  0  0  0  0
   -7.3264    9.8951   -8.0245 C   0  0  0  0  0  0  0  0  0  0  0  0
   -5.9604   10.4805   -7.7353 C   0  0  0  0  0  0  0  0  0  0  0  0
   -4.8075    9.7596   -8.0491 C   0  0  0  0  0  0  0  0  0  0  0  0
   -3.4358   11.5809   -7.2415 C   0  0  0  0  0  0  0  0  0  0  0  0
   -4.5835   12.3061   -6.9225 C   0  0  0  0  0  0  0  0  0  0  0  0
   -3.5481   10.3107   -7.8024 C   0  0  0  0  0  0  0  0  0  0  0  0
   -5.8471   11.7541   -7.1666 C   0  0  0  0  0  0  0  0  0  0  0  0
   -4.4650   13.6954   -6.3241 C   0  0  0  0  0  0  0  0  0  0  0  0
   -1.6558   12.5461  -10.1051 H   0  0  0  0  0  0  0  0  0  0  0  0
   -2.1418   14.8314   -9.9056 H   0  0  0  0  0  0  0  0  0  0  0  0
   -1.3273   14.8503  -11.5065 H   0  0  0  0  0  0  0  0  0  0  0  0
   -3.9292   11.6343  -11.3361 H   0  0  0  0  0  0  0  0  0  0  0  0
   -4.0052   12.5329   -9.7825 H   0  0  0  0  0  0  0  0  0  0  0  0
   -1.6986   11.5246  -12.1863 H   0  0  0  0  0  0  0  0  0  0  0  0
   -3.9654   15.7526  -11.0614 H   0  0  0  0  0  0  0  0  0  0  0  0
   -3.3451   15.2065  -12.6563 H   0  0  0  0  0  0  0  0  0  0  0  0
   -8.1726   10.1006  -13.8930 H   0  0  0  0  0  0  0  0  0  0  0  0
   -6.0607   12.2852   -9.8870 H   0  0  0  0  0  0  0  0  0  0  0  0
   -6.3117   10.0311  -10.7657 H   0  0  0  0  0  0  0  0  0  0  0  0
   -8.0295    9.6121   -7.2551 H   0  0  0  0  0  0  0  0  0  0  0  0
   -4.8582    8.8181   -7.4825 H   0  0  0  0  0  0  0  0  0  0  0  0
   -4.8529    9.5421   -9.1264 H   0  0  0  0  0  0  0  0  0  0  0  0
   -2.4600   12.0040   -7.0537 H   0  0  0  0  0  0  0  0  0  0  0  0
   -3.0270    9.6184   -7.1248 H   0  0  0  0  0  0  0  0  0  0  0  0
   -3.0225   10.3437   -8.7681 H   0  0  0  0  0  0  0  0  0  0  0  0
   -6.7366   12.3128   -6.9153 H   0  0  0  0  0  0  0  0  0  0  0  0
   -5.4700   14.1039   -6.1424 H   0  0  0  0  0  0  0  0  0  0  0  0
   -3.9148   13.6392   -5.3732 H   0  0  0  0  0  0  0  0  0  0  0  0
   -3.9239   14.3505   -7.0227 H   0  0  0  0  0  0  0  0  0  0  0  0
  1  2  1  0  0  0  0
  1  3  1  0  0  0  0
  1  4  1  0  0  0  0
  2  5  1  0  0  0  0
  3  6  1  0  0  0  0
  5  6  1  0  0  0  0
  6 12  1  0  0  0  0
  7  8  1  0  0  0  0
  7 10  2  0  0  0  0
  7 12  1  0  0  0  0
  8  9  1  0  0  0  0
  8 11  2  0  0  0  0
  9 15  2  0  0  0  0
 10 14  1  0  0  0  0
 12 13  2  0  0  0  0
 14 15  1  0  0  0  0
 14 18  1  0  0  0  0
 15 16  1  0  0  0  0
 16 17  2  0  0  0  0
 17 18  1  0  0  0  0
 18 19  2  0  0  0  0
 19 20  1  0  0  0  0
 20 21  1  0  0  0  0
 20 25  2  0  0  0  0
 21 24  1  0  0  0  0
 22 23  2  0  0  0  0
 22 24  1  0  0  0  0
 23 25  1  0  0  0  0
 23 26  1  0  0  0  0
  1 27  1  0  0  0  0
  2 28  1  0  0  0  0
  2 29  1  0  0  0  0
  3 30  1  0  0  0  0
  3 31  1  0  0  0  0
  4 32  1  0  0  0  0
  5 33  1  0  0  0  0
  5 34  1  0  0  0  0
  9 35  1  0  0  0  0
 10 36  1  0  0  0  0
 14 37  1  0  0  0  0
 19 38  1  0  0  0  0
 21 39  1  0  0  0  0
 21 40  1  0  0  0  0
 22 41  1  0  0  0  0
 24 42  1  0  0  0  0
 24 43  1  0  0  0  0
 25 44  1  0  0  0  0
 26 45  1  0  0  0  0
 26 46  1  0  0  0  0
 26 47  1  0  0  0  0
M  END
> <Name>
13

> <IC50[uM]>
0.006

$$$$
13
  -OEChem-05192314333D
 Structure written by MMmdl.
 47 50  0     1  0  0  0  0  0999 V2000
   -2.2088   12.9419  -10.9697 C   0  0  1  0  0  0  0  0  0  0  0  0
   -2.1904   14.4671  -10.9424 C   0  0  0  0  0  0  0  0  0  0  0  0
   -3.6992   12.5876  -10.8377 C   0  0  0  0  0  0  0  0  0  0  0  0
   -1.6826   12.4744  -12.1795 O   0  0  0  0  0  0  0  0  0  0  0  0
   -3.5107   14.9139  -11.6089 C   0  0  0  0  0  0  0  0  0  0  0  0
   -4.3443   13.7200  -11.5243 N   0  0  0  0  0  0  0  0  0  0  0  0
   -6.3525   12.3601  -12.0338 C   0  0  0  0  0  0  0  0  0  0  0  0
   -6.9727   11.7556  -13.1375 C   0  0  0  0  0  0  0  0  0  0  0  0
   -7.7097   10.5633  -13.0339 C   0  0  0  0  0  0  0  0  0  0  0  0
   -6.5001   11.8056  -10.7491 C   0  0  0  0  0  0  0  0  0  0  0  0
   -6.8506   12.3073  -14.3824 O   0  0  0  0  0  0  0  0  0  0  0  0
   -5.5377   13.6382  -12.2001 C   0  0  0  0  0  0  0  0  0  0  0  0
   -5.9500   14.5444  -12.9177 O   0  0  0  0  0  0  0  0  0  0  0  0
   -7.2308   10.6159  -10.6131 C   0  0  0  0  0  0  0  0  0  0  0  0
   -7.8083   10.0113  -11.7524 C   0  0  0  0  0  0  0  0  0  0  0  0
   -8.4200    8.8675  -11.2880 N   0  0  0  0  0  0  0  0  0  0  0  0
   -8.2847    8.7400   -9.9757 N   0  0  0  0  0  0  0  0  0  0  0  0
   -7.6047    9.7473   -9.5145 C   0  0  0  0  0  0  0  0  0  0  0  0
   -7.3264    9.8951   -8.0245 C   0  0  0  0  0  0  0  0  0  0  0  0
   -5.9604   10.4805   -7.7353 C   0  0  0  0  0  0  0  0  0  0  0  0
   -4.8075    9.7596   -8.0491 C   0  0  0  0  0  0  0  0  0  0  0  0
   -3.4358   11.5809   -7.2415 C   0  0  0  0  0  0  0  0  0  0  0  0
   -4.5835   12.3061   -6.9225 C   0  0  0  0  0  0  0  0  0  0  0  0
   -3.5481   10.3107   -7.8024 C   0  0  0  0  0  0  0  0  0  0  0  0
   -5.8471   11.7541   -7.1666 C   0  0  0  0  0  0  0  0  0  0  0  0
   -4.4650   13.6954   -6.3241 C   0  0  0  0  0  0  0  0  0  0  0  0
   -1.6558   12.5461  -10.1051 H   0  0  0  0  0  0  0  0  0  0  0  0
   -2.1418   14.8314   -9.9056 H   0  0  0  0  0  0  0  0  0  0  0  0
   -1.3273   14.8503  -11.5065 H   0  0  0  0  0  0  0  0  0  0  0  0
   -3.9292   11.6343  -11.3361 H   0  0  0  0  0  0  0  0  0  0  0  0
   -4.0052   12.5329   -9.7825 H   0  0  0  0  0  0  0  0  0  0  0  0
   -1.6986   11.5246  -12.1863 H   0  0  0  0  0  0  0  0  0  0  0  0
   -3.9654   15.7526  -11.0614 H   0  0  0  0  0  0  0  0  0  0  0  0
   -3.3451   15.2065  -12.6563 H   0  0  0  0  0  0  0  0  0  0  0  0
   -5.4494   11.7544  -12.1998 H   0  0  0  0  0  0  0  0  0  0  0  0
   -8.1726   10.1006  -13.8930 H   0  0  0  0  0  0  0  0  0  0  0  0
   -6.0607   12.2852   -9.8870 H   0  0  0  0  0  0  0  0  0  0  0  0
   -8.0295    9.6121   -7.2551 H   0  0  0  0  0  0  0  0  0  0  0  0
   -4.8892    8.7741   -8.4833 H   0  0  0  0  0  0  0  0  0  0  0  0
   -2.8612   12.1924   -7.9527 H   0  0  0  0  0  0  0  0  0  0  0  0
   -2.8628   11.4670   -6.3094 H   0  0  0  0  0  0  0  0  0  0  0  0
   -4.5836   11.8682   -5.9134 H   0  0  0  0  0  0  0  0  0  0  0  0
   -2.6581    9.7501   -8.0474 H   0  0  0  0  0  0  0  0  0  0  0  0
   -6.7366   12.3128   -6.9153 H   0  0  0  0  0  0  0  0  0  0  0  0
   -5.4700   14.1039   -6.1424 H   0  0  0  0  0  0  0  0  0  0  0  0
   -3.9148   13.6392   -5.3732 H   0  0  0  0  0  0  0  0  0  0  0  0
   -3.9239   14.3505   -7.0227 H   0  0  0  0  0  0  0  0  0  0  0  0
  1  2  1  0  0  0  0
  1  3  1  0  0  0  0
  1  4  1  0  0  0  0
  2  5  1  0  0  0  0
  3  6  1  0  0  0  0
  5  6  1  0  0  0  0
  6 12  1  0  0  0  0
  7  8  1  0  0  0  0
  7 10  1  0  0  0  0
  7 12  1  0  0  0  0
  8  9  1  0  0  0  0
  8 11  2  0  0  0  0
  9 15  2  0  0  0  0
 10 14  2  0  0  0  0
 12 13  2  0  0  0  0
 14 15  1  0  0  0  0
 14 18  1  0  0  0  0
 15 16  1  0  0  0  0
 16 17  2  0  0  0  0
 17 18  1  0  0  0  0
 18 19  2  0  0  0  0
 19 20  1  0  0  0  0
 20 21  1  0  0  0  0
 20 25  2  0  0  0  0
 21 24  2  0  0  0  0
 22 23  1  0  0  0  0
 22 24  1  0  0  0  0
 23 25  1  0  0  0  0
 23 26  1  0  0  0  0
  1 27  1  0  0  0  0
  2 28  1  0  0  0  0
  2 29  1  0  0  0  0
  3 30  1  0  0  0  0
  3 31  1  0  0  0  0
  4 32  1  0  0  0  0
  5 33  1  0  0  0  0
  5 34  1  0  0  0  0
  7 35  1  0  0  0  0
  9 36  1  0  0  0  0
 10 37  1  0  0  0  0
 19 38  1  0  0  0  0
 21 39  1  0  0  0  0
 22 40  1  0  0  0  0
 22 41  1  0  0  0  0
 23 42  1  0  0  0  0
 24 43  1  0  0  0  0
 25 44  1  0  0  0  0
 26 45  1  0  0  0  0
 26 46  1  0  0  0  0
 26 47  1  0  0  0  0
M  END
> <Name>
13

> <IC50[uM]>
0.006

$$$$
13
  -OEChem-05192314333D
 Structure written by MMmdl.
 47 50  0     1  0  0  0  0  0999 V2000
   -2.2088   12.9419  -10.9697 C   0  0  1  0  0  0  0  0  0  0  0  0
   -2.1904   14.4671  -10.9424 C   0  0  0  0  0  0  0  0  0  0  0  0
   -3.6992   12.5876  -10.8377 C   0  0  0  0  0  0  0  0  0  0  0  0
   -1.6826   12.4744  -12.1795 O   0  0  0  0  0  0  0  0  0  0  0  0
   -3.5107   14.9139  -11.6089 C   0  0  0  0  0  0  0  0  0  0  0  0
   -4.3443   13.7200  -11.5243 N   0  0  0  0  0  0  0  0  0  0  0  0
   -6.3525   12.3601  -12.0338 C   0  0  0  0  0  0  0  0  0  0  0  0
   -6.9727   11.7556  -13.1375 C   0  0  0  0  0  0  0  0  0  0  0  0
   -7.7097   10.5633  -13.0339 C   0  0  0  0  0  0  0  0  0  0  0  0
   -6.5001   11.8056  -10.7491 C   0  0  0  0  0  0  0  0  0  0  0  0
   -6.8506   12.3073  -14.3824 O   0  0  0  0  0  0  0  0  0  0  0  0
   -5.5377   13.6382  -12.2001 C   0  0  0  0  0  0  0  0  0  0  0  0
   -5.9500   14.5444  -12.9177 O   0  0  0  0  0  0  0  0  0  0  0  0
   -7.2308   10.6159  -10.6131 C   0  0  0  0  0  0  0  0  0  0  0  0
   -7.8083   10.0113  -11.7524 C   0  0  0  0  0  0  0  0  0  0  0  0
   -8.4200    8.8675  -11.2880 N   0  0  0  0  0  0  0  0  0  0  0  0
   -8.2847    8.7400   -9.9757 N   0  0  0  0  0  0  0  0  0  0  0  0
   -7.6047    9.7473   -9.5145 C   0  0  0  0  0  0  0  0  0  0  0  0
   -7.3264    9.8951   -8.0245 C   0  0  0  0  0  0  0  0  0  0  0  0
   -5.9604   10.4805   -7.7353 C   0  0  0  0  0  0  0  0  0  0  0  0
   -4.8075    9.7596   -8.0491 C   0  0  0  0  0  0  0  0  0  0  0  0
   -3.4358   11.5809   -7.2415 C   0  0  0  0  0  0  0  0  0  0  0  0
   -4.5835   12.3061   -6.9225 C   0  0  0  0  0  0  0  0  0  0  0  0
   -3.5481   10.3107   -7.8024 C   0  0  0  0  0  0  0  0  0  0  0  0
   -5.8471   11.7541   -7.1666 C   0  0  0  0  0  0  0  0  0  0  0  0
   -4.4650   13.6954   -6.3241 C   0  0  0  0  0  0  0  0  0  0  0  0
   -1.6558   12.5461  -10.1051 H   0  0  0  0  0  0  0  0  0  0  0  0
   -2.1418   14.8314   -9.9056 H   0  0  0  0  0  0  0  0  0  0  0  0
   -1.3273   14.8503  -11.5065 H   0  0  0  0  0  0  0  0  0  0  0  0
   -3.9292   11.6343  -11.3361 H   0  0  0  0  0  0  0  0  0  0  0  0
   -4.0052   12.5329   -9.7825 H   0  0  0  0  0  0  0  0  0  0  0  0
   -1.6986   11.5246  -12.1863 H   0  0  0  0  0  0  0  0  0  0  0  0
   -3.9654   15.7526  -11.0614 H   0  0  0  0  0  0  0  0  0  0  0  0
   -3.3451   15.2065  -12.6563 H   0  0  0  0  0  0  0  0  0  0  0  0
   -5.4494   11.7544  -12.1998 H   0  0  0  0  0  0  0  0  0  0  0  0
   -8.1726   10.1006  -13.8930 H   0  0  0  0  0  0  0  0  0  0  0  0
   -6.0607   12.2852   -9.8870 H   0  0  0  0  0  0  0  0  0  0  0  0
   -8.0295    9.6121   -7.2551 H   0  0  0  0  0  0  0  0  0  0  0  0
   -5.9749   10.0291   -6.7323 H   0  0  0  0  0  0  0  0  0  0  0  0
   -4.8892    8.7741   -8.4833 H   0  0  0  0  0  0  0  0  0  0  0  0
   -2.8612   12.1924   -7.9527 H   0  0  0  0  0  0  0  0  0  0  0  0
   -2.8628   11.4670   -6.3094 H   0  0  0  0  0  0  0  0  0  0  0  0
   -2.6581    9.7501   -8.0474 H   0  0  0  0  0  0  0  0  0  0  0  0
   -6.7366   12.3128   -6.9153 H   0  0  0  0  0  0  0  0  0  0  0  0
   -5.4700   14.1039   -6.1424 H   0  0  0  0  0  0  0  0  0  0  0  0
   -3.9148   13.6392   -5.3732 H   0  0  0  0  0  0  0  0  0  0  0  0
   -3.9239   14.3505   -7.0227 H   0  0  0  0  0  0  0  0  0  0  0  0
  1  2  1  0  0  0  0
  1  3  1  0  0  0  0
  1  4  1  0  0  0  0
  2  5  1  0  0  0  0
  3  6  1  0  0  0  0
  5  6  1  0  0  0  0
  6 12  1  0  0  0  0
  7  8  1  0  0  0  0
  7 10  1  0  0  0  0
  7 12  1  0  0  0  0
  8  9  1  0  0  0  0
  8 11  2  0  0  0  0
  9 15  2  0  0  0  0
 10 14  2  0  0  0  0
 12 13  2  0  0  0  0
 14 15  1  0  0  0  0
 14 18  1  0  0  0  0
 15 16  1  0  0  0  0
 16 17  2  0  0  0  0
 17 18  1  0  0  0  0
 18 19  2  0  0  0  0
 19 20  1  0  0  0  0
 20 21  1  0  0  0  0
 20 25  1  0  0  0  0
 21 24  2  0  0  0  0
 22 23  1  0  0  0  0
 22 24  1  0  0  0  0
 23 25  2  0  0  0  0
 23 26  1  0  0  0  0
  1 27  1  0  0  0  0
  2 28  1  0  0  0  0
  2 29  1  0  0  0  0
  3 30  1  0  0  0  0
  3 31  1  0  0  0  0
  4 32  1  0  0  0  0
  5 33  1  0  0  0  0
  5 34  1  0  0  0  0
  7 35  1  0  0  0  0
  9 36  1  0  0  0  0
 10 37  1  0  0  0  0
 19 38  1  0  0  0  0
 20 39  1  0  0  0  0
 21 40  1  0  0  0  0
 22 41  1  0  0  0  0
 22 42  1  0  0  0  0
 24 43  1  0  0  0  0
 25 44  1  0  0  0  0
 26 45  1  0  0  0  0
 26 46  1  0  0  0  0
 26 47  1  0  0  0  0
M  END
> <Name>
13

> <IC50[uM]>
0.006

$$$$
13
  -OEChem-05192314333D
 Structure written by MMmdl.
 47 50  0     1  0  0  0  0  0999 V2000
   -2.2088   12.9419  -10.9697 C   0  0  1  0  0  0  0  0  0  0  0  0
   -2.1904   14.4671  -10.9424 C   0  0  0  0  0  0  0  0  0  0  0  0
   -3.6992   12.5876  -10.8377 C   0  0  0  0  0  0  0  0  0  0  0  0
   -1.6826   12.4744  -12.1795 O   0  0  0  0  0  0  0  0  0  0  0  0
   -3.5107   14.9139  -11.6089 C   0  0  0  0  0  0  0  0  0  0  0  0
   -4.3443   13.7200  -11.5243 N   0  0  0  0  0  0  0  0  0  0  0  0
   -6.3525   12.3601  -12.0338 C   0  0  0  0  0  0  0  0  0  0  0  0
   -6.9727   11.7556  -13.1375 C   0  0  0  0  0  0  0  0  0  0  0  0
   -7.7097   10.5633  -13.0339 C   0  0  0  0  0  0  0  0  0  0  0  0
   -6.5001   11.8056  -10.7491 C   0  0  0  0  0  0  0  0  0  0  0  0
   -6.8506   12.3073  -14.3824 O   0  0  0  0  0  0  0  0  0  0  0  0
   -5.5377   13.6382  -12.2001 C   0  0  0  0  0  0  0  0  0  0  0  0
   -5.9500   14.5444  -12.9177 O   0  0  0  0  0  0  0  0  0  0  0  0
   -7.2308   10.6159  -10.6131 C   0  0  0  0  0  0  0  0  0  0  0  0
   -7.8083   10.0113  -11.7524 C   0  0  0  0  0  0  0  0  0  0  0  0
   -8.4200    8.8675  -11.2880 N   0  0  0  0  0  0  0  0  0  0  0  0
   -8.2847    8.7400   -9.9757 N   0  0  0  0  0  0  0  0  0  0  0  0
   -7.6047    9.7473   -9.5145 C   0  0  0  0  0  0  0  0  0  0  0  0
   -7.3264    9.8951   -8.0245 C   0  0  0  0  0  0  0  0  0  0  0  0
   -5.9604   10.4805   -7.7353 C   0  0  0  0  0  0  0  0  0  0  0  0
   -4.8075    9.7596   -8.0491 C   0  0  0  0  0  0  0  0  0  0  0  0
   -3.4358   11.5809   -7.2415 C   0  0  0  0  0  0  0  0  0  0  0  0
   -4.5835   12.3061   -6.9225 C   0  0  0  0  0  0  0  0  0  0  0  0
   -3.5481   10.3107   -7.8024 C   0  0  0  0  0  0  0  0  0  0  0  0
   -5.8471   11.7541   -7.1666 C   0  0  0  0  0  0  0  0  0  0  0  0
   -4.4650   13.6954   -6.3241 C   0  0  0  0  0  0  0  0  0  0  0  0
   -1.6558   12.5461  -10.1051 H   0  0  0  0  0  0  0  0  0  0  0  0
   -2.1418   14.8314   -9.9056 H   0  0  0  0  0  0  0  0  0  0  0  0
   -1.3273   14.8503  -11.5065 H   0  0  0  0  0  0  0  0  0  0  0  0
   -3.9292   11.6343  -11.3361 H   0  0  0  0  0  0  0  0  0  0  0  0
   -4.0052   12.5329   -9.7825 H   0  0  0  0  0  0  0  0  0  0  0  0
   -1.6986   11.5246  -12.1863 H   0  0  0  0  0  0  0  0  0  0  0  0
   -3.9654   15.7526  -11.0614 H   0  0  0  0  0  0  0  0  0  0  0  0
   -3.3451   15.2065  -12.6563 H   0  0  0  0  0  0  0  0  0  0  0  0
   -8.1726   10.1006  -13.8930 H   0  0  0  0  0  0  0  0  0  0  0  0
   -6.0607   12.2852   -9.8870 H   0  0  0  0  0  0  0  0  0  0  0  0
   -6.3117   10.0311  -10.7657 H   0  0  0  0  0  0  0  0  0  0  0  0
   -8.0295    9.6121   -7.2551 H   0  0  0  0  0  0  0  0  0  0  0  0
   -4.8892    8.7741   -8.4833 H   0  0  0  0  0  0  0  0  0  0  0  0
   -2.8612   12.1924   -7.9527 H   0  0  0  0  0  0  0  0  0  0  0  0
   -2.8628   11.4670   -6.3094 H   0  0  0  0  0  0  0  0  0  0  0  0
   -4.5836   11.8682   -5.9134 H   0  0  0  0  0  0  0  0  0  0  0  0
   -2.6581    9.7501   -8.0474 H   0  0  0  0  0  0  0  0  0  0  0  0
   -6.7366   12.3128   -6.9153 H   0  0  0  0  0  0  0  0  0  0  0  0
   -5.4700   14.1039   -6.1424 H   0  0  0  0  0  0  0  0  0  0  0  0
   -3.9148   13.6392   -5.3732 H   0  0  0  0  0  0  0  0  0  0  0  0
   -3.9239   14.3505   -7.0227 H   0  0  0  0  0  0  0  0  0  0  0  0
  1  2  1  0  0  0  0
  1  3  1  0  0  0  0
  1  4  1  0  0  0  0
  2  5  1  0  0  0  0
  3  6  1  0  0  0  0
  5  6  1  0  0  0  0
  6 12  1  0  0  0  0
  7  8  1  0  0  0  0
  7 10  2  0  0  0  0
  7 12  1  0  0  0  0
  8  9  1  0  0  0  0
  8 11  2  0  0  0  0
  9 15  2  0  0  0  0
 10 14  1  0  0  0  0
 12 13  2  0  0  0  0
 14 15  1  0  0  0  0
 14 18  1  0  0  0  0
 15 16  1  0  0  0  0
 16 17  2  0  0  0  0
 17 18  1  0  0  0  0
 18 19  2  0  0  0  0
 19 20  1  0  0  0  0
 20 21  1  0  0  0  0
 20 25  2  0  0  0  0
 21 24  2  0  0  0  0
 22 23  1  0  0  0  0
 22 24  1  0  0  0  0
 23 25  1  0  0  0  0
 23 26  1  0  0  0  0
  1 27  1  0  0  0  0
  2 28  1  0  0  0  0
  2 29  1  0  0  0  0
  3 30  1  0  0  0  0
  3 31  1  0  0  0  0
  4 32  1  0  0  0  0
  5 33  1  0  0  0  0
  5 34  1  0  0  0  0
  9 35  1  0  0  0  0
 10 36  1  0  0  0  0
 14 37  1  0  0  0  0
 19 38  1  0  0  0  0
 21 39  1  0  0  0  0
 22 40  1  0  0  0  0
 22 41  1  0  0  0  0
 23 42  1  0  0  0  0
 24 43  1  0  0  0  0
 25 44  1  0  0  0  0
 26 45  1  0  0  0  0
 26 46  1  0  0  0  0
 26 47  1  0  0  0  0
M  END
> <Name>
13

> <IC50[uM]>
0.006

$$$$
13
  -OEChem-05192314333D
 Structure written by MMmdl.
 47 50  0     1  0  0  0  0  0999 V2000
   -2.2088   12.9419  -10.9697 C   0  0  1  0  0  0  0  0  0  0  0  0
   -2.1904   14.4671  -10.9424 C   0  0  0  0  0  0  0  0  0  0  0  0
   -3.6992   12.5876  -10.8377 C   0  0  0  0  0  0  0  0  0  0  0  0
   -1.6826   12.4744  -12.1795 O   0  0  0  0  0  0  0  0  0  0  0  0
   -3.5107   14.9139  -11.6089 C   0  0  0  0  0  0  0  0  0  0  0  0
   -4.3443   13.7200  -11.5243 N   0  0  0  0  0  0  0  0  0  0  0  0
   -6.3525   12.3601  -12.0338 C   0  0  0  0  0  0  0  0  0  0  0  0
   -6.9727   11.7556  -13.1375 C   0  0  0  0  0  0  0  0  0  0  0  0
   -7.7097   10.5633  -13.0339 C   0  0  0  0  0  0  0  0  0  0  0  0
   -6.5001   11.8056  -10.7491 C   0  0  0  0  0  0  0  0  0  0  0  0
   -6.8506   12.3073  -14.3824 O   0  0  0  0  0  0  0  0  0  0  0  0
   -5.5377   13.6382  -12.2001 C   0  0  0  0  0  0  0  0  0  0  0  0
   -5.9500   14.5444  -12.9177 O   0  0  0  0  0  0  0  0  0  0  0  0
   -7.2308   10.6159  -10.6131 C   0  0  0  0  0  0  0  0  0  0  0  0
   -7.8083   10.0113  -11.7524 C   0  0  0  0  0  0  0  0  0  0  0  0
   -8.4200    8.8675  -11.2880 N   0  0  0  0  0  0  0  0  0  0  0  0
   -8.2847    8.7400   -9.9757 N   0  0  0  0  0  0  0  0  0  0  0  0
   -7.6047    9.7473   -9.5145 C   0  0  0  0  0  0  0  0  0  0  0  0
   -7.3264    9.8951   -8.0245 C   0  0  0  0  0  0  0  0  0  0  0  0
   -5.9604   10.4805   -7.7353 C   0  0  0  0  0  0  0  0  0  0  0  0
   -4.8075    9.7596   -8.0491 C   0  0  0  0  0  0  0  0  0  0  0  0
   -3.4358   11.5809   -7.2415 C   0  0  0  0  0  0  0  0  0  0  0  0
   -4.5835   12.3061   -6.9225 C   0  0  0  0  0  0  0  0  0  0  0  0
   -3.5481   10.3107   -7.8024 C   0  0  0  0  0  0  0  0  0  0  0  0
   -5.8471   11.7541   -7.1666 C   0  0  0  0  0  0  0  0  0  0  0  0
   -4.4650   13.6954   -6.3241 C   0  0  0  0  0  0  0  0  0  0  0  0
   -1.6558   12.5461  -10.1051 H   0  0  0  0  0  0  0  0  0  0  0  0
   -2.1418   14.8314   -9.9056 H   0  0  0  0  0  0  0  0  0  0  0  0
   -1.3273   14.8503  -11.5065 H   0  0  0  0  0  0  0  0  0  0  0  0
   -3.9292   11.6343  -11.3361 H   0  0  0  0  0  0  0  0  0  0  0  0
   -4.0052   12.5329   -9.7825 H   0  0  0  0  0  0  0  0  0  0  0  0
   -1.6986   11.5246  -12.1863 H   0  0  0  0  0  0  0  0  0  0  0  0
   -3.9654   15.7526  -11.0614 H   0  0  0  0  0  0  0  0  0  0  0  0
   -3.3451   15.2065  -12.6563 H   0  0  0  0  0  0  0  0  0  0  0  0
   -8.1726   10.1006  -13.8930 H   0  0  0  0  0  0  0  0  0  0  0  0
   -6.0607   12.2852   -9.8870 H   0  0  0  0  0  0  0  0  0  0  0  0
   -6.3117   10.0311  -10.7657 H   0  0  0  0  0  0  0  0  0  0  0  0
   -8.0295    9.6121   -7.2551 H   0  0  0  0  0  0  0  0  0  0  0  0
   -5.9749   10.0291   -6.7323 H   0  0  0  0  0  0  0  0  0  0  0  0
   -4.8892    8.7741   -8.4833 H   0  0  0  0  0  0  0  0  0  0  0  0
   -2.8612   12.1924   -7.9527 H   0  0  0  0  0  0  0  0  0  0  0  0
   -2.8628   11.4670   -6.3094 H   0  0  0  0  0  0  0  0  0  0  0  0
   -2.6581    9.7501   -8.0474 H   0  0  0  0  0  0  0  0  0  0  0  0
   -6.7366   12.3128   -6.9153 H   0  0  0  0  0  0  0  0  0  0  0  0
   -5.4700   14.1039   -6.1424 H   0  0  0  0  0  0  0  0  0  0  0  0
   -3.9148   13.6392   -5.3732 H   0  0  0  0  0  0  0  0  0  0  0  0
   -3.9239   14.3505   -7.0227 H   0  0  0  0  0  0  0  0  0  0  0  0
  1  2  1  0  0  0  0
  1  3  1  0  0  0  0
  1  4  1  0  0  0  0
  2  5  1  0  0  0  0
  3  6  1  0  0  0  0
  5  6  1  0  0  0  0
  6 12  1  0  0  0  0
  7  8  1  0  0  0  0
  7 10  2  0  0  0  0
  7 12  1  0  0  0  0
  8  9  1  0  0  0  0
  8 11  2  0  0  0  0
  9 15  2  0  0  0  0
 10 14  1  0  0  0  0
 12 13  2  0  0  0  0
 14 15  1  0  0  0  0
 14 18  1  0  0  0  0
 15 16  1  0  0  0  0
 16 17  2  0  0  0  0
 17 18  1  0  0  0  0
 18 19  2  0  0  0  0
 19 20  1  0  0  0  0
 20 21  1  0  0  0  0
 20 25  1  0  0  0  0
 21 24  2  0  0  0  0
 22 23  1  0  0  0  0
 22 24  1  0  0  0  0
 23 25  2  0  0  0  0
 23 26  1  0  0  0  0
  1 27  1  0  0  0  0
  2 28  1  0  0  0  0
  2 29  1  0  0  0  0
  3 30  1  0  0  0  0
  3 31  1  0  0  0  0
  4 32  1  0  0  0  0
  5 33  1  0  0  0  0
  5 34  1  0  0  0  0
  9 35  1  0  0  0  0
 10 36  1  0  0  0  0
 14 37  1  0  0  0  0
 19 38  1  0  0  0  0
 20 39  1  0  0  0  0
 21 40  1  0  0  0  0
 22 41  1  0  0  0  0
 22 42  1  0  0  0  0
 24 43  1  0  0  0  0
 25 44  1  0  0  0  0
 26 45  1  0  0  0  0
 26 46  1  0  0  0  0
 26 47  1  0  0  0  0
M  END
> <Name>
13

> <IC50[uM]>
0.006

$$$$
13
  -OEChem-05192314333D
 Structure written by MMmdl.
 47 50  0     1  0  0  0  0  0999 V2000
   -2.2088   12.9419  -10.9697 C   0  0  1  0  0  0  0  0  0  0  0  0
   -2.1904   14.4671  -10.9424 C   0  0  0  0  0  0  0  0  0  0  0  0
   -3.6992   12.5876  -10.8377 C   0  0  0  0  0  0  0  0  0  0  0  0
   -1.6826   12.4744  -12.1795 O   0  0  0  0  0  0  0  0  0  0  0  0
   -3.5107   14.9139  -11.6089 C   0  0  0  0  0  0  0  0  0  0  0  0
   -4.3443   13.7200  -11.5243 N   0  0  0  0  0  0  0  0  0  0  0  0
   -6.3525   12.3601  -12.0338 C   0  0  0  0  0  0  0  0  0  0  0  0
   -6.9727   11.7556  -13.1375 C   0  0  0  0  0  0  0  0  0  0  0  0
   -7.7097   10.5633  -13.0339 C   0  0  0  0  0  0  0  0  0  0  0  0
   -6.5001   11.8056  -10.7491 C   0  0  0  0  0  0  0  0  0  0  0  0
   -6.8506   12.3073  -14.3824 O   0  0  0  0  0  0  0  0  0  0  0  0
   -5.5377   13.6382  -12.2001 C   0  0  0  0  0  0  0  0  0  0  0  0
   -5.9500   14.5444  -12.9177 O   0  0  0  0  0  0  0  0  0  0  0  0
   -7.2308   10.6159  -10.6131 C   0  0  0  0  0  0  0  0  0  0  0  0
   -7.8083   10.0113  -11.7524 C   0  0  0  0  0  0  0  0  0  0  0  0
   -8.4200    8.8675  -11.2880 N   0  0  0  0  0  0  0  0  0  0  0  0
   -8.2847    8.7400   -9.9757 N   0  0  0  0  0  0  0  0  0  0  0  0
   -7.6047    9.7473   -9.5145 C   0  0  0  0  0  0  0  0  0  0  0  0
   -7.3264    9.8951   -8.0245 C   0  0  0  0  0  0  0  0  0  0  0  0
   -5.9604   10.4805   -7.7353 C   0  0  0  0  0  0  0  0  0  0  0  0
   -4.8075    9.7596   -8.0491 C   0  0  0  0  0  0  0  0  0  0  0  0
   -3.4358   11.5809   -7.2415 C   0  0  0  0  0  0  0  0  0  0  0  0
   -4.5835   12.3061   -6.9225 C   0  0  0  0  0  0  0  0  0  0  0  0
   -3.5481   10.3107   -7.8024 C   0  0  0  0  0  0  0  0  0  0  0  0
   -5.8471   11.7541   -7.1666 C   0  0  0  0  0  0  0  0  0  0  0  0
   -4.4650   13.6954   -6.3241 C   0  0  0  0  0  0  0  0  0  0  0  0
   -1.6558   12.5461  -10.1051 H   0  0  0  0  0  0  0  0  0  0  0  0
   -2.1418   14.8314   -9.9056 H   0  0  0  0  0  0  0  0  0  0  0  0
   -1.3273   14.8503  -11.5065 H   0  0  0  0  0  0  0  0  0  0  0  0
   -3.9292   11.6343  -11.3361 H   0  0  0  0  0  0  0  0  0  0  0  0
   -4.0052   12.5329   -9.7825 H   0  0  0  0  0  0  0  0  0  0  0  0
   -1.6986   11.5246  -12.1863 H   0  0  0  0  0  0  0  0  0  0  0  0
   -3.9654   15.7526  -11.0614 H   0  0  0  0  0  0  0  0  0  0  0  0
   -3.3451   15.2065  -12.6563 H   0  0  0  0  0  0  0  0  0  0  0  0
   -5.4494   11.7544  -12.1998 H   0  0  0  0  0  0  0  0  0  0  0  0
   -8.1726   10.1006  -13.8930 H   0  0  0  0  0  0  0  0  0  0  0  0
   -6.0607   12.2852   -9.8870 H   0  0  0  0  0  0  0  0  0  0  0  0
   -6.6702    9.1804   -9.6379 H   0  0  0  0  0  0  0  0  0  0  0  0
   -8.0295    9.6121   -7.2551 H   0  0  0  0  0  0  0  0  0  0  0  0
   -4.8892    8.7741   -8.4833 H   0  0  0  0  0  0  0  0  0  0  0  0
   -2.8612   12.1924   -7.9527 H   0  0  0  0  0  0  0  0  0  0  0  0
   -2.8628   11.4670   -6.3094 H   0  0  0  0  0  0  0  0  0  0  0  0
   -2.6581    9.7501   -8.0474 H   0  0  0  0  0  0  0  0  0  0  0  0
   -6.7366   12.3128   -6.9153 H   0  0  0  0  0  0  0  0  0  0  0  0
   -5.4700   14.1039   -6.1424 H   0  0  0  0  0  0  0  0  0  0  0  0
   -3.9148   13.6392   -5.3732 H   0  0  0  0  0  0  0  0  0  0  0  0
   -3.9239   14.3505   -7.0227 H   0  0  0  0  0  0  0  0  0  0  0  0
  1  2  1  0  0  0  0
  1  3  1  0  0  0  0
  1  4  1  0  0  0  0
  2  5  1  0  0  0  0
  3  6  1  0  0  0  0
  5  6  1  0  0  0  0
  6 12  1  0  0  0  0
  7  8  1  0  0  0  0
  7 10  1  0  0  0  0
  7 12  1  0  0  0  0
  8  9  1  0  0  0  0
  8 11  2  0  0  0  0
  9 15  2  0  0  0  0
 10 14  2  0  0  0  0
 12 13  2  0  0  0  0
 14 15  1  0  0  0  0
 14 18  1  0  0  0  0
 15 16  1  0  0  0  0
 16 17  2  0  0  0  0
 17 18  1  0  0  0  0
 18 19  1  0  0  0  0
 19 20  2  0  0  0  0
 20 21  1  0  0  0  0
 20 25  1  0  0  0  0
 21 24  2  0  0  0  0
 22 23  1  0  0  0  0
 22 24  1  0  0  0  0
 23 25  2  0  0  0  0
 23 26  1  0  0  0  0
  1 27  1  0  0  0  0
  2 28  1  0  0  0  0
  2 29  1  0  0  0  0
  3 30  1  0  0  0  0
  3 31  1  0  0  0  0
  4 32  1  0  0  0  0
  5 33  1  0  0  0  0
  5 34  1  0  0  0  0
  7 35  1  0  0  0  0
  9 36  1  0  0  0  0
 10 37  1  0  0  0  0
 18 38  1  0  0  0  0
 19 39  1  0  0  0  0
 21 40  1  0  0  0  0
 22 41  1  0  0  0  0
 22 42  1  0  0  0  0
 24 43  1  0  0  0  0
 25 44  1  0  0  0  0
 26 45  1  0  0  0  0
 26 46  1  0  0  0  0
 26 47  1  0  0  0  0
M  END
> <Name>
13

> <IC50[uM]>
0.006

$$$$
13
  -OEChem-05192314333D
 Structure written by MMmdl.
 47 50  0     1  0  0  0  0  0999 V2000
   -2.2088   12.9419  -10.9697 C   0  0  1  0  0  0  0  0  0  0  0  0
   -2.1904   14.4671  -10.9424 C   0  0  0  0  0  0  0  0  0  0  0  0
   -3.6992   12.5876  -10.8377 C   0  0  0  0  0  0  0  0  0  0  0  0
   -1.6826   12.4744  -12.1795 O   0  0  0  0  0  0  0  0  0  0  0  0
   -3.5107   14.9139  -11.6089 C   0  0  0  0  0  0  0  0  0  0  0  0
   -4.3443   13.7200  -11.5243 N   0  0  0  0  0  0  0  0  0  0  0  0
   -6.3525   12.3601  -12.0338 C   0  0  0  0  0  0  0  0  0  0  0  0
   -6.9727   11.7556  -13.1375 C   0  0  0  0  0  0  0  0  0  0  0  0
   -7.7097   10.5633  -13.0339 C   0  0  0  0  0  0  0  0  0  0  0  0
   -6.5001   11.8056  -10.7491 C   0  0  0  0  0  0  0  0  0  0  0  0
   -6.8506   12.3073  -14.3824 O   0  0  0  0  0  0  0  0  0  0  0  0
   -5.5377   13.6382  -12.2001 C   0  0  0  0  0  0  0  0  0  0  0  0
   -5.9500   14.5444  -12.9177 O   0  0  0  0  0  0  0  0  0  0  0  0
   -7.2308   10.6159  -10.6131 C   0  0  0  0  0  0  0  0  0  0  0  0
   -7.8083   10.0113  -11.7524 C   0  0  0  0  0  0  0  0  0  0  0  0
   -8.4200    8.8675  -11.2880 N   0  0  0  0  0  0  0  0  0  0  0  0
   -8.2847    8.7400   -9.9757 N   0  0  0  0  0  0  0  0  0  0  0  0
   -7.6047    9.7473   -9.5145 C   0  0  0  0  0  0  0  0  0  0  0  0
   -7.3264    9.8951   -8.0245 C   0  0  0  0  0  0  0  0  0  0  0  0
   -5.9604   10.4805   -7.7353 C   0  0  0  0  0  0  0  0  0  0  0  0
   -4.8075    9.7596   -8.0491 C   0  0  0  0  0  0  0  0  0  0  0  0
   -3.4358   11.5809   -7.2415 C   0  0  0  0  0  0  0  0  0  0  0  0
   -4.5835   12.3061   -6.9225 C   0  0  0  0  0  0  0  0  0  0  0  0
   -3.5481   10.3107   -7.8024 C   0  0  0  0  0  0  0  0  0  0  0  0
   -5.8471   11.7541   -7.1666 C   0  0  0  0  0  0  0  0  0  0  0  0
   -4.4650   13.6954   -6.3241 C   0  0  0  0  0  0  0  0  0  0  0  0
   -1.6558   12.5461  -10.1051 H   0  0  0  0  0  0  0  0  0  0  0  0
   -2.1418   14.8314   -9.9056 H   0  0  0  0  0  0  0  0  0  0  0  0
   -1.3273   14.8503  -11.5065 H   0  0  0  0  0  0  0  0  0  0  0  0
   -3.9292   11.6343  -11.3361 H   0  0  0  0  0  0  0  0  0  0  0  0
   -4.0052   12.5329   -9.7825 H   0  0  0  0  0  0  0  0  0  0  0  0
   -1.6986   11.5246  -12.1863 H   0  0  0  0  0  0  0  0  0  0  0  0
   -3.9654   15.7526  -11.0614 H   0  0  0  0  0  0  0  0  0  0  0  0
   -3.3451   15.2065  -12.6563 H   0  0  0  0  0  0  0  0  0  0  0  0
   -8.1726   10.1006  -13.8930 H   0  0  0  0  0  0  0  0  0  0  0  0
   -6.0607   12.2852   -9.8870 H   0  0  0  0  0  0  0  0  0  0  0  0
   -6.3117   10.0311  -10.7657 H   0  0  0  0  0  0  0  0  0  0  0  0
   -6.6702    9.1804   -9.6379 H   0  0  0  0  0  0  0  0  0  0  0  0
   -8.0295    9.6121   -7.2551 H   0  0  0  0  0  0  0  0  0  0  0  0
   -4.8892    8.7741   -8.4833 H   0  0  0  0  0  0  0  0  0  0  0  0
   -2.8612   12.1924   -7.9527 H   0  0  0  0  0  0  0  0  0  0  0  0
   -2.8628   11.4670   -6.3094 H   0  0  0  0  0  0  0  0  0  0  0  0
   -2.6581    9.7501   -8.0474 H   0  0  0  0  0  0  0  0  0  0  0  0
   -6.7366   12.3128   -6.9153 H   0  0  0  0  0  0  0  0  0  0  0  0
   -5.4700   14.1039   -6.1424 H   0  0  0  0  0  0  0  0  0  0  0  0
   -3.9148   13.6392   -5.3732 H   0  0  0  0  0  0  0  0  0  0  0  0
   -3.9239   14.3505   -7.0227 H   0  0  0  0  0  0  0  0  0  0  0  0
  1  2  1  0  0  0  0
  1  3  1  0  0  0  0
  1  4  1  0  0  0  0
  2  5  1  0  0  0  0
  3  6  1  0  0  0  0
  5  6  1  0  0  0  0
  6 12  1  0  0  0  0
  7  8  1  0  0  0  0
  7 10  2  0  0  0  0
  7 12  1  0  0  0  0
  8  9  1  0  0  0  0
  8 11  2  0  0  0  0
  9 15  2  0  0  0  0
 10 14  1  0  0  0  0
 12 13  2  0  0  0  0
 14 15  1  0  0  0  0
 14 18  1  0  0  0  0
 15 16  1  0  0  0  0
 16 17  2  0  0  0  0
 17 18  1  0  0  0  0
 18 19  1  0  0  0  0
 19 20  2  0  0  0  0
 20 21  1  0  0  0  0
 20 25  1  0  0  0  0
 21 24  2  0  0  0  0
 22 23  1  0  0  0  0
 22 24  1  0  0  0  0
 23 25  2  0  0  0  0
 23 26  1  0  0  0  0
  1 27  1  0  0  0  0
  2 28  1  0  0  0  0
  2 29  1  0  0  0  0
  3 30  1  0  0  0  0
  3 31  1  0  0  0  0
  4 32  1  0  0  0  0
  5 33  1  0  0  0  0
  5 34  1  0  0  0  0
  9 35  1  0  0  0  0
 10 36  1  0  0  0  0
 14 37  1  0  0  0  0
 18 38  1  0  0  0  0
 19 39  1  0  0  0  0
 21 40  1  0  0  0  0
 22 41  1  0  0  0  0
 22 42  1  0  0  0  0
 24 43  1  0  0  0  0
 25 44  1  0  0  0  0
 26 45  1  0  0  0  0
 26 46  1  0  0  0  0
 26 47  1  0  0  0  0
M  END
> <Name>
13

> <IC50[uM]>
0.006

$$$$
13
  -OEChem-05192314333D
 Structure written by MMmdl.
 47 50  0     1  0  0  0  0  0999 V2000
   -2.2088   12.9419  -10.9697 C   0  0  1  0  0  0  0  0  0  0  0  0
   -2.1904   14.4671  -10.9424 C   0  0  0  0  0  0  0  0  0  0  0  0
   -3.6992   12.5876  -10.8377 C   0  0  0  0  0  0  0  0  0  0  0  0
   -1.6826   12.4744  -12.1795 O   0  0  0  0  0  0  0  0  0  0  0  0
   -3.5107   14.9139  -11.6089 C   0  0  0  0  0  0  0  0  0  0  0  0
   -4.3443   13.7200  -11.5243 N   0  0  0  0  0  0  0  0  0  0  0  0
   -6.3525   12.3601  -12.0338 C   0  0  0  0  0  0  0  0  0  0  0  0
   -6.9727   11.7556  -13.1375 C   0  0  0  0  0  0  0  0  0  0  0  0
   -7.7097   10.5633  -13.0339 C   0  0  0  0  0  0  0  0  0  0  0  0
   -6.5001   11.8056  -10.7491 C   0  0  0  0  0  0  0  0  0  0  0  0
   -6.8506   12.3073  -14.3824 O   0  0  0  0  0  0  0  0  0  0  0  0
   -5.5377   13.6382  -12.2001 C   0  0  0  0  0  0  0  0  0  0  0  0
   -5.9500   14.5444  -12.9177 O   0  0  0  0  0  0  0  0  0  0  0  0
   -7.2308   10.6159  -10.6131 C   0  0  0  0  0  0  0  0  0  0  0  0
   -7.8083   10.0113  -11.7524 C   0  0  0  0  0  0  0  0  0  0  0  0
   -8.4200    8.8675  -11.2880 N   0  0  0  0  0  0  0  0  0  0  0  0
   -8.2847    8.7400   -9.9757 N   0  0  0  0  0  0  0  0  0  0  0  0
   -7.6047    9.7473   -9.5145 C   0  0  0  0  0  0  0  0  0  0  0  0
   -7.3264    9.8951   -8.0245 C   0  0  0  0  0  0  0  0  0  0  0  0
   -5.9604   10.4805   -7.7353 C   0  0  0  0  0  0  0  0  0  0  0  0
   -4.8075    9.7596   -8.0491 C   0  0  0  0  0  0  0  0  0  0  0  0
   -3.4358   11.5809   -7.2415 C   0  0  0  0  0  0  0  0  0  0  0  0
   -4.5835   12.3061   -6.9225 C   0  0  0  0  0  0  0  0  0  0  0  0
   -3.5481   10.3107   -7.8024 C   0  0  0  0  0  0  0  0  0  0  0  0
   -5.8471   11.7541   -7.1666 C   0  0  0  0  0  0  0  0  0  0  0  0
   -4.4650   13.6954   -6.3241 C   0  0  0  0  0  0  0  0  0  0  0  0
   -1.6558   12.5461  -10.1051 H   0  0  0  0  0  0  0  0  0  0  0  0
   -2.1418   14.8314   -9.9056 H   0  0  0  0  0  0  0  0  0  0  0  0
   -1.3273   14.8503  -11.5065 H   0  0  0  0  0  0  0  0  0  0  0  0
   -3.9292   11.6343  -11.3361 H   0  0  0  0  0  0  0  0  0  0  0  0
   -4.0052   12.5329   -9.7825 H   0  0  0  0  0  0  0  0  0  0  0  0
   -1.6986   11.5246  -12.1863 H   0  0  0  0  0  0  0  0  0  0  0  0
   -3.9654   15.7526  -11.0614 H   0  0  0  0  0  0  0  0  0  0  0  0
   -3.3451   15.2065  -12.6563 H   0  0  0  0  0  0  0  0  0  0  0  0
   -5.4494   11.7544  -12.1998 H   0  0  0  0  0  0  0  0  0  0  0  0
   -8.1726   10.1006  -13.8930 H   0  0  0  0  0  0  0  0  0  0  0  0
   -6.0607   12.2852   -9.8870 H   0  0  0  0  0  0  0  0  0  0  0  0
   -8.0295    9.6121   -7.2551 H   0  0  0  0  0  0  0  0  0  0  0  0
   -4.8892    8.7741   -8.4833 H   0  0  0  0  0  0  0  0  0  0  0  0
   -2.8612   12.1924   -7.9527 H   0  0  0  0  0  0  0  0  0  0  0  0
   -2.8628   11.4670   -6.3094 H   0  0  0  0  0  0  0  0  0  0  0  0
   -3.0270    9.6184   -7.1248 H   0  0  0  0  0  0  0  0  0  0  0  0
   -3.0225   10.3437   -8.7681 H   0  0  0  0  0  0  0  0  0  0  0  0
   -6.7366   12.3128   -6.9153 H   0  0  0  0  0  0  0  0  0  0  0  0
   -5.4700   14.1039   -6.1424 H   0  0  0  0  0  0  0  0  0  0  0  0
   -3.9148   13.6392   -5.3732 H   0  0  0  0  0  0  0  0  0  0  0  0
   -3.9239   14.3505   -7.0227 H   0  0  0  0  0  0  0  0  0  0  0  0
  1  2  1  0  0  0  0
  1  3  1  0  0  0  0
  1  4  1  0  0  0  0
  2  5  1  0  0  0  0
  3  6  1  0  0  0  0
  5  6  1  0  0  0  0
  6 12  1  0  0  0  0
  7  8  1  0  0  0  0
  7 10  1  0  0  0  0
  7 12  1  0  0  0  0
  8  9  1  0  0  0  0
  8 11  2  0  0  0  0
  9 15  2  0  0  0  0
 10 14  2  0  0  0  0
 12 13  2  0  0  0  0
 14 15  1  0  0  0  0
 14 18  1  0  0  0  0
 15 16  1  0  0  0  0
 16 17  2  0  0  0  0
 17 18  1  0  0  0  0
 18 19  2  0  0  0  0
 19 20  1  0  0  0  0
 20 21  2  0  0  0  0
 20 25  1  0  0  0  0
 21 24  1  0  0  0  0
 22 23  1  0  0  0  0
 22 24  1  0  0  0  0
 23 25  2  0  0  0  0
 23 26  1  0  0  0  0
  1 27  1  0  0  0  0
  2 28  1  0  0  0  0
  2 29  1  0  0  0  0
  3 30  1  0  0  0  0
  3 31  1  0  0  0  0
  4 32  1  0  0  0  0
  5 33  1  0  0  0  0
  5 34  1  0  0  0  0
  7 35  1  0  0  0  0
  9 36  1  0  0  0  0
 10 37  1  0  0  0  0
 19 38  1  0  0  0  0
 21 39  1  0  0  0  0
 22 40  1  0  0  0  0
 22 41  1  0  0  0  0
 24 42  1  0  0  0  0
 24 43  1  0  0  0  0
 25 44  1  0  0  0  0
 26 45  1  0  0  0  0
 26 46  1  0  0  0  0
 26 47  1  0  0  0  0
M  END
> <Name>
13

> <IC50[uM]>
0.006

$$$$
13
  -OEChem-05192314333D
 Structure written by MMmdl.
 47 50  0     1  0  0  0  0  0999 V2000
   -2.2088   12.9419  -10.9697 C   0  0  1  0  0  0  0  0  0  0  0  0
   -2.1904   14.4671  -10.9424 C   0  0  0  0  0  0  0  0  0  0  0  0
   -3.6992   12.5876  -10.8377 C   0  0  0  0  0  0  0  0  0  0  0  0
   -1.6826   12.4744  -12.1795 O   0  0  0  0  0  0  0  0  0  0  0  0
   -3.5107   14.9139  -11.6089 C   0  0  0  0  0  0  0  0  0  0  0  0
   -4.3443   13.7200  -11.5243 N   0  0  0  0  0  0  0  0  0  0  0  0
   -6.3525   12.3601  -12.0338 C   0  0  0  0  0  0  0  0  0  0  0  0
   -6.9727   11.7556  -13.1375 C   0  0  0  0  0  0  0  0  0  0  0  0
   -7.7097   10.5633  -13.0339 C   0  0  0  0  0  0  0  0  0  0  0  0
   -6.5001   11.8056  -10.7491 C   0  0  0  0  0  0  0  0  0  0  0  0
   -6.8506   12.3073  -14.3824 O   0  0  0  0  0  0  0  0  0  0  0  0
   -5.5377   13.6382  -12.2001 C   0  0  0  0  0  0  0  0  0  0  0  0
   -5.9500   14.5444  -12.9177 O   0  0  0  0  0  0  0  0  0  0  0  0
   -7.2308   10.6159  -10.6131 C   0  0  0  0  0  0  0  0  0  0  0  0
   -7.8083   10.0113  -11.7524 C   0  0  0  0  0  0  0  0  0  0  0  0
   -8.4200    8.8675  -11.2880 N   0  0  0  0  0  0  0  0  0  0  0  0
   -8.2847    8.7400   -9.9757 N   0  0  0  0  0  0  0  0  0  0  0  0
   -7.6047    9.7473   -9.5145 C   0  0  0  0  0  0  0  0  0  0  0  0
   -7.3264    9.8951   -8.0245 C   0  0  0  0  0  0  0  0  0  0  0  0
   -5.9604   10.4805   -7.7353 C   0  0  0  0  0  0  0  0  0  0  0  0
   -4.8075    9.7596   -8.0491 C   0  0  0  0  0  0  0  0  0  0  0  0
   -3.4358   11.5809   -7.2415 C   0  0  0  0  0  0  0  0  0  0  0  0
   -4.5835   12.3061   -6.9225 C   0  0  0  0  0  0  0  0  0  0  0  0
   -3.5481   10.3107   -7.8024 C   0  0  0  0  0  0  0  0  0  0  0  0
   -5.8471   11.7541   -7.1666 C   0  0  0  0  0  0  0  0  0  0  0  0
   -4.4650   13.6954   -6.3241 C   0  0  0  0  0  0  0  0  0  0  0  0
   -1.6558   12.5461  -10.1051 H   0  0  0  0  0  0  0  0  0  0  0  0
   -2.1418   14.8314   -9.9056 H   0  0  0  0  0  0  0  0  0  0  0  0
   -1.3273   14.8503  -11.5065 H   0  0  0  0  0  0  0  0  0  0  0  0
   -3.9292   11.6343  -11.3361 H   0  0  0  0  0  0  0  0  0  0  0  0
   -4.0052   12.5329   -9.7825 H   0  0  0  0  0  0  0  0  0  0  0  0
   -1.6986   11.5246  -12.1863 H   0  0  0  0  0  0  0  0  0  0  0  0
   -3.9654   15.7526  -11.0614 H   0  0  0  0  0  0  0  0  0  0  0  0
   -3.3451   15.2065  -12.6563 H   0  0  0  0  0  0  0  0  0  0  0  0
   -8.1726   10.1006  -13.8930 H   0  0  0  0  0  0  0  0  0  0  0  0
   -6.0607   12.2852   -9.8870 H   0  0  0  0  0  0  0  0  0  0  0  0
   -6.3117   10.0311  -10.7657 H   0  0  0  0  0  0  0  0  0  0  0  0
   -8.0295    9.6121   -7.2551 H   0  0  0  0  0  0  0  0  0  0  0  0
   -4.8892    8.7741   -8.4833 H   0  0  0  0  0  0  0  0  0  0  0  0
   -2.8612   12.1924   -7.9527 H   0  0  0  0  0  0  0  0  0  0  0  0
   -2.8628   11.4670   -6.3094 H   0  0  0  0  0  0  0  0  0  0  0  0
   -3.0270    9.6184   -7.1248 H   0  0  0  0  0  0  0  0  0  0  0  0
   -3.0225   10.3437   -8.7681 H   0  0  0  0  0  0  0  0  0  0  0  0
   -6.7366   12.3128   -6.9153 H   0  0  0  0  0  0  0  0  0  0  0  0
   -5.4700   14.1039   -6.1424 H   0  0  0  0  0  0  0  0  0  0  0  0
   -3.9148   13.6392   -5.3732 H   0  0  0  0  0  0  0  0  0  0  0  0
   -3.9239   14.3505   -7.0227 H   0  0  0  0  0  0  0  0  0  0  0  0
  1  2  1  0  0  0  0
  1  3  1  0  0  0  0
  1  4  1  0  0  0  0
  2  5  1  0  0  0  0
  3  6  1  0  0  0  0
  5  6  1  0  0  0  0
  6 12  1  0  0  0  0
  7  8  1  0  0  0  0
  7 10  2  0  0  0  0
  7 12  1  0  0  0  0
  8  9  1  0  0  0  0
  8 11  2  0  0  0  0
  9 15  2  0  0  0  0
 10 14  1  0  0  0  0
 12 13  2  0  0  0  0
 14 15  1  0  0  0  0
 14 18  1  0  0  0  0
 15 16  1  0  0  0  0
 16 17  2  0  0  0  0
 17 18  1  0  0  0  0
 18 19  2  0  0  0  0
 19 20  1  0  0  0  0
 20 21  2  0  0  0  0
 20 25  1  0  0  0  0
 21 24  1  0  0  0  0
 22 23  1  0  0  0  0
 22 24  1  0  0  0  0
 23 25  2  0  0  0  0
 23 26  1  0  0  0  0
  1 27  1  0  0  0  0
  2 28  1  0  0  0  0
  2 29  1  0  0  0  0
  3 30  1  0  0  0  0
  3 31  1  0  0  0  0
  4 32  1  0  0  0  0
  5 33  1  0  0  0  0
  5 34  1  0  0  0  0
  9 35  1  0  0  0  0
 10 36  1  0  0  0  0
 14 37  1  0  0  0  0
 19 38  1  0  0  0  0
 21 39  1  0  0  0  0
 22 40  1  0  0  0  0
 22 41  1  0  0  0  0
 24 42  1  0  0  0  0
 24 43  1  0  0  0  0
 25 44  1  0  0  0  0
 26 45  1  0  0  0  0
 26 46  1  0  0  0  0
 26 47  1  0  0  0  0
M  END
> <Name>
13

> <IC50[uM]>
0.006

$$$$
13
  -OEChem-05192314333D
 Structure written by MMmdl.
 47 50  0     1  0  0  0  0  0999 V2000
   -2.2088   12.9419  -10.9697 C   0  0  1  0  0  0  0  0  0  0  0  0
   -2.1904   14.4671  -10.9424 C   0  0  0  0  0  0  0  0  0  0  0  0
   -3.6992   12.5876  -10.8377 C   0  0  0  0  0  0  0  0  0  0  0  0
   -1.6826   12.4744  -12.1795 O   0  0  0  0  0  0  0  0  0  0  0  0
   -3.5107   14.9139  -11.6089 C   0  0  0  0  0  0  0  0  0  0  0  0
   -4.3443   13.7200  -11.5243 N   0  0  0  0  0  0  0  0  0  0  0  0
   -6.3525   12.3601  -12.0338 C   0  0  0  0  0  0  0  0  0  0  0  0
   -6.9727   11.7556  -13.1375 C   0  0  0  0  0  0  0  0  0  0  0  0
   -7.7097   10.5633  -13.0339 C   0  0  0  0  0  0  0  0  0  0  0  0
   -6.5001   11.8056  -10.7491 C   0  0  0  0  0  0  0  0  0  0  0  0
   -6.8506   12.3073  -14.3824 O   0  0  0  0  0  0  0  0  0  0  0  0
   -5.5377   13.6382  -12.2001 C   0  0  0  0  0  0  0  0  0  0  0  0
   -5.9500   14.5444  -12.9177 O   0  0  0  0  0  0  0  0  0  0  0  0
   -7.2308   10.6159  -10.6131 C   0  0  0  0  0  0  0  0  0  0  0  0
   -7.8083   10.0113  -11.7524 C   0  0  0  0  0  0  0  0  0  0  0  0
   -8.4200    8.8675  -11.2880 N   0  0  0  0  0  0  0  0  0  0  0  0
   -8.2847    8.7400   -9.9757 N   0  0  0  0  0  0  0  0  0  0  0  0
   -7.6047    9.7473   -9.5145 C   0  0  0  0  0  0  0  0  0  0  0  0
   -7.3264    9.8951   -8.0245 C   0  0  0  0  0  0  0  0  0  0  0  0
   -5.9604   10.4805   -7.7353 C   0  0  0  0  0  0  0  0  0  0  0  0
   -4.8075    9.7596   -8.0491 C   0  0  0  0  0  0  0  0  0  0  0  0
   -3.4358   11.5809   -7.2415 C   0  0  0  0  0  0  0  0  0  0  0  0
   -4.5835   12.3061   -6.9225 C   0  0  0  0  0  0  0  0  0  0  0  0
   -3.5481   10.3107   -7.8024 C   0  0  0  0  0  0  0  0  0  0  0  0
   -5.8471   11.7541   -7.1666 C   0  0  0  0  0  0  0  0  0  0  0  0
   -4.4650   13.6954   -6.3241 C   0  0  0  0  0  0  0  0  0  0  0  0
   -1.6558   12.5461  -10.1051 H   0  0  0  0  0  0  0  0  0  0  0  0
   -2.1418   14.8314   -9.9056 H   0  0  0  0  0  0  0  0  0  0  0  0
   -1.3273   14.8503  -11.5065 H   0  0  0  0  0  0  0  0  0  0  0  0
   -3.9292   11.6343  -11.3361 H   0  0  0  0  0  0  0  0  0  0  0  0
   -4.0052   12.5329   -9.7825 H   0  0  0  0  0  0  0  0  0  0  0  0
   -1.6986   11.5246  -12.1863 H   0  0  0  0  0  0  0  0  0  0  0  0
   -3.9654   15.7526  -11.0614 H   0  0  0  0  0  0  0  0  0  0  0  0
   -3.3451   15.2065  -12.6563 H   0  0  0  0  0  0  0  0  0  0  0  0
   -8.1726   10.1006  -13.8930 H   0  0  0  0  0  0  0  0  0  0  0  0
   -6.0607   12.2852   -9.8870 H   0  0  0  0  0  0  0  0  0  0  0  0
   -8.0295    9.6121   -7.2551 H   0  0  0  0  0  0  0  0  0  0  0  0
   -4.8582    8.8181   -7.4825 H   0  0  0  0  0  0  0  0  0  0  0  0
   -4.8529    9.5421   -9.1264 H   0  0  0  0  0  0  0  0  0  0  0  0
   -2.8612   12.1924   -7.9527 H   0  0  0  0  0  0  0  0  0  0  0  0
   -2.8628   11.4670   -6.3094 H   0  0  0  0  0  0  0  0  0  0  0  0
   -3.0270    9.6184   -7.1248 H   0  0  0  0  0  0  0  0  0  0  0  0
   -3.0225   10.3437   -8.7681 H   0  0  0  0  0  0  0  0  0  0  0  0
   -6.7366   12.3128   -6.9153 H   0  0  0  0  0  0  0  0  0  0  0  0
   -5.4700   14.1039   -6.1424 H   0  0  0  0  0  0  0  0  0  0  0  0
   -3.9148   13.6392   -5.3732 H   0  0  0  0  0  0  0  0  0  0  0  0
   -3.9239   14.3505   -7.0227 H   0  0  0  0  0  0  0  0  0  0  0  0
  1  2  1  0  0  0  0
  1  3  1  0  0  0  0
  1  4  1  0  0  0  0
  2  5  1  0  0  0  0
  3  6  1  0  0  0  0
  5  6  1  0  0  0  0
  6 12  1  0  0  0  0
  7  8  1  0  0  0  0
  7 10  2  0  0  0  0
  7 12  1  0  0  0  0
  8  9  1  0  0  0  0
  8 11  2  0  0  0  0
  9 15  2  0  0  0  0
 10 14  1  0  0  0  0
 12 13  2  0  0  0  0
 14 15  1  0  0  0  0
 14 18  2  0  0  0  0
 15 16  1  0  0  0  0
 16 17  2  0  0  0  0
 17 18  1  0  0  0  0
 18 19  1  0  0  0  0
 19 20  2  0  0  0  0
 20 21  1  0  0  0  0
 20 25  1  0  0  0  0
 21 24  1  0  0  0  0
 22 23  1  0  0  0  0
 22 24  1  0  0  0  0
 23 25  2  0  0  0  0
 23 26  1  0  0  0  0
  1 27  1  0  0  0  0
  2 28  1  0  0  0  0
  2 29  1  0  0  0  0
  3 30  1  0  0  0  0
  3 31  1  0  0  0  0
  4 32  1  0  0  0  0
  5 33  1  0  0  0  0
  5 34  1  0  0  0  0
  9 35  1  0  0  0  0
 10 36  1  0  0  0  0
 19 37  1  0  0  0  0
 21 38  1  0  0  0  0
 21 39  1  0  0  0  0
 22 40  1  0  0  0  0
 22 41  1  0  0  0  0
 24 42  1  0  0  0  0
 24 43  1  0  0  0  0
 25 44  1  0  0  0  0
 26 45  1  0  0  0  0
 26 46  1  0  0  0  0
 26 47  1  0  0  0  0
M  END
> <Name>
13

> <IC50[uM]>
0.006

$$$$
13
  -OEChem-05192314333D
 Structure written by MMmdl.
 47 50  0     1  0  0  0  0  0999 V2000
   -2.2088   12.9419  -10.9697 C   0  0  1  0  0  0  0  0  0  0  0  0
   -2.1904   14.4671  -10.9424 C   0  0  0  0  0  0  0  0  0  0  0  0
   -3.6992   12.5876  -10.8377 C   0  0  0  0  0  0  0  0  0  0  0  0
   -1.6826   12.4744  -12.1795 O   0  0  0  0  0  0  0  0  0  0  0  0
   -3.5107   14.9139  -11.6089 C   0  0  0  0  0  0  0  0  0  0  0  0
   -4.3443   13.7200  -11.5243 N   0  0  0  0  0  0  0  0  0  0  0  0
   -6.3525   12.3601  -12.0338 C   0  0  0  0  0  0  0  0  0  0  0  0
   -6.9727   11.7556  -13.1375 C   0  0  0  0  0  0  0  0  0  0  0  0
   -7.7097   10.5633  -13.0339 C   0  0  0  0  0  0  0  0  0  0  0  0
   -6.5001   11.8056  -10.7491 C   0  0  0  0  0  0  0  0  0  0  0  0
   -6.8506   12.3073  -14.3824 O   0  0  0  0  0  0  0  0  0  0  0  0
   -5.5377   13.6382  -12.2001 C   0  0  0  0  0  0  0  0  0  0  0  0
   -5.9500   14.5444  -12.9177 O   0  0  0  0  0  0  0  0  0  0  0  0
   -7.2308   10.6159  -10.6131 C   0  0  0  0  0  0  0  0  0  0  0  0
   -7.8083   10.0113  -11.7524 C   0  0  0  0  0  0  0  0  0  0  0  0
   -8.4200    8.8675  -11.2880 N   0  0  0  0  0  0  0  0  0  0  0  0
   -8.2847    8.7400   -9.9757 N   0  0  0  0  0  0  0  0  0  0  0  0
   -7.6047    9.7473   -9.5145 C   0  0  0  0  0  0  0  0  0  0  0  0
   -7.3264    9.8951   -8.0245 C   0  0  0  0  0  0  0  0  0  0  0  0
   -5.9604   10.4805   -7.7353 C   0  0  0  0  0  0  0  0  0  0  0  0
   -4.8075    9.7596   -8.0491 C   0  0  0  0  0  0  0  0  0  0  0  0
   -3.4358   11.5809   -7.2415 C   0  0  0  0  0  0  0  0  0  0  0  0
   -4.5835   12.3061   -6.9225 C   0  0  0  0  0  0  0  0  0  0  0  0
   -3.5481   10.3107   -7.8024 C   0  0  0  0  0  0  0  0  0  0  0  0
   -5.8471   11.7541   -7.1666 C   0  0  0  0  0  0  0  0  0  0  0  0
   -4.4650   13.6954   -6.3241 C   0  0  0  0  0  0  0  0  0  0  0  0
   -1.6558   12.5461  -10.1051 H   0  0  0  0  0  0  0  0  0  0  0  0
   -2.1418   14.8314   -9.9056 H   0  0  0  0  0  0  0  0  0  0  0  0
   -1.3273   14.8503  -11.5065 H   0  0  0  0  0  0  0  0  0  0  0  0
   -3.9292   11.6343  -11.3361 H   0  0  0  0  0  0  0  0  0  0  0  0
   -4.0052   12.5329   -9.7825 H   0  0  0  0  0  0  0  0  0  0  0  0
   -1.6986   11.5246  -12.1863 H   0  0  0  0  0  0  0  0  0  0  0  0
   -3.9654   15.7526  -11.0614 H   0  0  0  0  0  0  0  0  0  0  0  0
   -3.3451   15.2065  -12.6563 H   0  0  0  0  0  0  0  0  0  0  0  0
   -8.7298   10.7663  -13.3920 H   0  0  0  0  0  0  0  0  0  0  0  0
   -7.2340    9.8162  -13.6862 H   0  0  0  0  0  0  0  0  0  0  0  0
   -6.0607   12.2852   -9.8870 H   0  0  0  0  0  0  0  0  0  0  0  0
   -8.0295    9.6121   -7.2551 H   0  0  0  0  0  0  0  0  0  0  0  0
   -4.8582    8.8181   -7.4825 H   0  0  0  0  0  0  0  0  0  0  0  0
   -4.8529    9.5421   -9.1264 H   0  0  0  0  0  0  0  0  0  0  0  0
   -2.4600   12.0040   -7.0537 H   0  0  0  0  0  0  0  0  0  0  0  0
   -4.5836   11.8682   -5.9134 H   0  0  0  0  0  0  0  0  0  0  0  0
   -2.6581    9.7501   -8.0474 H   0  0  0  0  0  0  0  0  0  0  0  0
   -6.7366   12.3128   -6.9153 H   0  0  0  0  0  0  0  0  0  0  0  0
   -5.4700   14.1039   -6.1424 H   0  0  0  0  0  0  0  0  0  0  0  0
   -3.9148   13.6392   -5.3732 H   0  0  0  0  0  0  0  0  0  0  0  0
   -3.9239   14.3505   -7.0227 H   0  0  0  0  0  0  0  0  0  0  0  0
  1  2  1  0  0  0  0
  1  3  1  0  0  0  0
  1  4  1  0  0  0  0
  2  5  1  0  0  0  0
  3  6  1  0  0  0  0
  5  6  1  0  0  0  0
  6 12  1  0  0  0  0
  7  8  1  0  0  0  0
  7 10  2  0  0  0  0
  7 12  1  0  0  0  0
  8  9  1  0  0  0  0
  8 11  2  0  0  0  0
  9 15  1  0  0  0  0
 10 14  1  0  0  0  0
 12 13  2  0  0  0  0
 14 15  2  0  0  0  0
 14 18  1  0  0  0  0
 15 16  1  0  0  0  0
 16 17  2  0  0  0  0
 17 18  1  0  0  0  0
 18 19  2  0  0  0  0
 19 20  1  0  0  0  0
 20 21  1  0  0  0  0
 20 25  2  0  0  0  0
 21 24  1  0  0  0  0
 22 23  1  0  0  0  0
 22 24  2  0  0  0  0
 23 25  1  0  0  0  0
 23 26  1  0  0  0  0
  1 27  1  0  0  0  0
  2 28  1  0  0  0  0
  2 29  1  0  0  0  0
  3 30  1  0  0  0  0
  3 31  1  0  0  0  0
  4 32  1  0  0  0  0
  5 33  1  0  0  0  0
  5 34  1  0  0  0  0
  9 35  1  0  0  0  0
  9 36  1  0  0  0  0
 10 37  1  0  0  0  0
 19 38  1  0  0  0  0
 21 39  1  0  0  0  0
 21 40  1  0  0  0  0
 22 41  1  0  0  0  0
 23 42  1  0  0  0  0
 24 43  1  0  0  0  0
 25 44  1  0  0  0  0
 26 45  1  0  0  0  0
 26 46  1  0  0  0  0
 26 47  1  0  0  0  0
M  END
> <Name>
13

> <IC50[uM]>
0.006

$$$$
13
  -OEChem-05192314333D
 Structure written by MMmdl.
 47 50  0     1  0  0  0  0  0999 V2000
   -2.2088   12.9419  -10.9697 C   0  0  1  0  0  0  0  0  0  0  0  0
   -2.1904   14.4671  -10.9424 C   0  0  0  0  0  0  0  0  0  0  0  0
   -3.6992   12.5876  -10.8377 C   0  0  0  0  0  0  0  0  0  0  0  0
   -1.6826   12.4744  -12.1795 O   0  0  0  0  0  0  0  0  0  0  0  0
   -3.5107   14.9139  -11.6089 C   0  0  0  0  0  0  0  0  0  0  0  0
   -4.3443   13.7200  -11.5243 N   0  0  0  0  0  0  0  0  0  0  0  0
   -6.3525   12.3601  -12.0338 C   0  0  0  0  0  0  0  0  0  0  0  0
   -6.9727   11.7556  -13.1375 C   0  0  0  0  0  0  0  0  0  0  0  0
   -7.7097   10.5633  -13.0339 C   0  0  0  0  0  0  0  0  0  0  0  0
   -6.5001   11.8056  -10.7491 C   0  0  0  0  0  0  0  0  0  0  0  0
   -6.8506   12.3073  -14.3824 O   0  0  0  0  0  0  0  0  0  0  0  0
   -5.5377   13.6382  -12.2001 C   0  0  0  0  0  0  0  0  0  0  0  0
   -5.9500   14.5444  -12.9177 O   0  0  0  0  0  0  0  0  0  0  0  0
   -7.2308   10.6159  -10.6131 C   0  0  0  0  0  0  0  0  0  0  0  0
   -7.8083   10.0113  -11.7524 C   0  0  0  0  0  0  0  0  0  0  0  0
   -8.4200    8.8675  -11.2880 N   0  0  0  0  0  0  0  0  0  0  0  0
   -8.2847    8.7400   -9.9757 N   0  0  0  0  0  0  0  0  0  0  0  0
   -7.6047    9.7473   -9.5145 C   0  0  0  0  0  0  0  0  0  0  0  0
   -7.3264    9.8951   -8.0245 C   0  0  0  0  0  0  0  0  0  0  0  0
   -5.9604   10.4805   -7.7353 C   0  0  0  0  0  0  0  0  0  0  0  0
   -4.8075    9.7596   -8.0491 C   0  0  0  0  0  0  0  0  0  0  0  0
   -3.4358   11.5809   -7.2415 C   0  0  0  0  0  0  0  0  0  0  0  0
   -4.5835   12.3061   -6.9225 C   0  0  0  0  0  0  0  0  0  0  0  0
   -3.5481   10.3107   -7.8024 C   0  0  0  0  0  0  0  0  0  0  0  0
   -5.8471   11.7541   -7.1666 C   0  0  0  0  0  0  0  0  0  0  0  0
   -4.4650   13.6954   -6.3241 C   0  0  0  0  0  0  0  0  0  0  0  0
   -1.6558   12.5461  -10.1051 H   0  0  0  0  0  0  0  0  0  0  0  0
   -2.1418   14.8314   -9.9056 H   0  0  0  0  0  0  0  0  0  0  0  0
   -1.3273   14.8503  -11.5065 H   0  0  0  0  0  0  0  0  0  0  0  0
   -3.9292   11.6343  -11.3361 H   0  0  0  0  0  0  0  0  0  0  0  0
   -4.0052   12.5329   -9.7825 H   0  0  0  0  0  0  0  0  0  0  0  0
   -1.6986   11.5246  -12.1863 H   0  0  0  0  0  0  0  0  0  0  0  0
   -3.9654   15.7526  -11.0614 H   0  0  0  0  0  0  0  0  0  0  0  0
   -3.3451   15.2065  -12.6563 H   0  0  0  0  0  0  0  0  0  0  0  0
   -8.7298   10.7663  -13.3920 H   0  0  0  0  0  0  0  0  0  0  0  0
   -7.2340    9.8162  -13.6862 H   0  0  0  0  0  0  0  0  0  0  0  0
   -6.0607   12.2852   -9.8870 H   0  0  0  0  0  0  0  0  0  0  0  0
   -8.0295    9.6121   -7.2551 H   0  0  0  0  0  0  0  0  0  0  0  0
   -5.9749   10.0291   -6.7323 H   0  0  0  0  0  0  0  0  0  0  0  0
   -4.8582    8.8181   -7.4825 H   0  0  0  0  0  0  0  0  0  0  0  0
   -4.8529    9.5421   -9.1264 H   0  0  0  0  0  0  0  0  0  0  0  0
   -2.4600   12.0040   -7.0537 H   0  0  0  0  0  0  0  0  0  0  0  0
   -2.6581    9.7501   -8.0474 H   0  0  0  0  0  0  0  0  0  0  0  0
   -6.7366   12.3128   -6.9153 H   0  0  0  0  0  0  0  0  0  0  0  0
   -5.4700   14.1039   -6.1424 H   0  0  0  0  0  0  0  0  0  0  0  0
   -3.9148   13.6392   -5.3732 H   0  0  0  0  0  0  0  0  0  0  0  0
   -3.9239   14.3505   -7.0227 H   0  0  0  0  0  0  0  0  0  0  0  0
  1  2  1  0  0  0  0
  1  3  1  0  0  0  0
  1  4  1  0  0  0  0
  2  5  1  0  0  0  0
  3  6  1  0  0  0  0
  5  6  1  0  0  0  0
  6 12  1  0  0  0  0
  7  8  1  0  0  0  0
  7 10  2  0  0  0  0
  7 12  1  0  0  0  0
  8  9  1  0  0  0  0
  8 11  2  0  0  0  0
  9 15  1  0  0  0  0
 10 14  1  0  0  0  0
 12 13  2  0  0  0  0
 14 15  2  0  0  0  0
 14 18  1  0  0  0  0
 15 16  1  0  0  0  0
 16 17  2  0  0  0  0
 17 18  1  0  0  0  0
 18 19  2  0  0  0  0
 19 20  1  0  0  0  0
 20 21  1  0  0  0  0
 20 25  1  0  0  0  0
 21 24  1  0  0  0  0
 22 23  1  0  0  0  0
 22 24  2  0  0  0  0
 23 25  2  0  0  0  0
 23 26  1  0  0  0  0
  1 27  1  0  0  0  0
  2 28  1  0  0  0  0
  2 29  1  0  0  0  0
  3 30  1  0  0  0  0
  3 31  1  0  0  0  0
  4 32  1  0  0  0  0
  5 33  1  0  0  0  0
  5 34  1  0  0  0  0
  9 35  1  0  0  0  0
  9 36  1  0  0  0  0
 10 37  1  0  0  0  0
 19 38  1  0  0  0  0
 20 39  1  0  0  0  0
 21 40  1  0  0  0  0
 21 41  1  0  0  0  0
 22 42  1  0  0  0  0
 24 43  1  0  0  0  0
 25 44  1  0  0  0  0
 26 45  1  0  0  0  0
 26 46  1  0  0  0  0
 26 47  1  0  0  0  0
M  END
> <Name>
13

> <IC50[uM]>
0.006

$$$$
13
  -OEChem-05192314333D
 Structure written by MMmdl.
 47 50  0     1  0  0  0  0  0999 V2000
   -2.2088   12.9419  -10.9697 C   0  0  1  0  0  0  0  0  0  0  0  0
   -2.1904   14.4671  -10.9424 C   0  0  0  0  0  0  0  0  0  0  0  0
   -3.6992   12.5876  -10.8377 C   0  0  0  0  0  0  0  0  0  0  0  0
   -1.6826   12.4744  -12.1795 O   0  0  0  0  0  0  0  0  0  0  0  0
   -3.5107   14.9139  -11.6089 C   0  0  0  0  0  0  0  0  0  0  0  0
   -4.3443   13.7200  -11.5243 N   0  0  0  0  0  0  0  0  0  0  0  0
   -6.3525   12.3601  -12.0338 C   0  0  0  0  0  0  0  0  0  0  0  0
   -6.9727   11.7556  -13.1375 C   0  0  0  0  0  0  0  0  0  0  0  0
   -7.7097   10.5633  -13.0339 C   0  0  0  0  0  0  0  0  0  0  0  0
   -6.5001   11.8056  -10.7491 C   0  0  0  0  0  0  0  0  0  0  0  0
   -6.8506   12.3073  -14.3824 O   0  0  0  0  0  0  0  0  0  0  0  0
   -5.5377   13.6382  -12.2001 C   0  0  0  0  0  0  0  0  0  0  0  0
   -5.9500   14.5444  -12.9177 O   0  0  0  0  0  0  0  0  0  0  0  0
   -7.2308   10.6159  -10.6131 C   0  0  0  0  0  0  0  0  0  0  0  0
   -7.8083   10.0113  -11.7524 C   0  0  0  0  0  0  0  0  0  0  0  0
   -8.4200    8.8675  -11.2880 N   0  0  0  0  0  0  0  0  0  0  0  0
   -8.2847    8.7400   -9.9757 N   0  0  0  0  0  0  0  0  0  0  0  0
   -7.6047    9.7473   -9.5145 C   0  0  0  0  0  0  0  0  0  0  0  0
   -7.3264    9.8951   -8.0245 C   0  0  0  0  0  0  0  0  0  0  0  0
   -5.9604   10.4805   -7.7353 C   0  0  0  0  0  0  0  0  0  0  0  0
   -4.8075    9.7596   -8.0491 C   0  0  0  0  0  0  0  0  0  0  0  0
   -3.4358   11.5809   -7.2415 C   0  0  0  0  0  0  0  0  0  0  0  0
   -4.5835   12.3061   -6.9225 C   0  0  0  0  0  0  0  0  0  0  0  0
   -3.5481   10.3107   -7.8024 C   0  0  0  0  0  0  0  0  0  0  0  0
   -5.8471   11.7541   -7.1666 C   0  0  0  0  0  0  0  0  0  0  0  0
   -4.4650   13.6954   -6.3241 C   0  0  0  0  0  0  0  0  0  0  0  0
   -1.6558   12.5461  -10.1051 H   0  0  0  0  0  0  0  0  0  0  0  0
   -2.1418   14.8314   -9.9056 H   0  0  0  0  0  0  0  0  0  0  0  0
   -1.3273   14.8503  -11.5065 H   0  0  0  0  0  0  0  0  0  0  0  0
   -3.9292   11.6343  -11.3361 H   0  0  0  0  0  0  0  0  0  0  0  0
   -4.0052   12.5329   -9.7825 H   0  0  0  0  0  0  0  0  0  0  0  0
   -1.6986   11.5246  -12.1863 H   0  0  0  0  0  0  0  0  0  0  0  0
   -3.9654   15.7526  -11.0614 H   0  0  0  0  0  0  0  0  0  0  0  0
   -3.3451   15.2065  -12.6563 H   0  0  0  0  0  0  0  0  0  0  0  0
   -8.7298   10.7663  -13.3920 H   0  0  0  0  0  0  0  0  0  0  0  0
   -7.2340    9.8162  -13.6862 H   0  0  0  0  0  0  0  0  0  0  0  0
   -6.0607   12.2852   -9.8870 H   0  0  0  0  0  0  0  0  0  0  0  0
   -6.6702    9.1804   -9.6379 H   0  0  0  0  0  0  0  0  0  0  0  0
   -8.0295    9.6121   -7.2551 H   0  0  0  0  0  0  0  0  0  0  0  0
   -4.8582    8.8181   -7.4825 H   0  0  0  0  0  0  0  0  0  0  0  0
   -4.8529    9.5421   -9.1264 H   0  0  0  0  0  0  0  0  0  0  0  0
   -2.4600   12.0040   -7.0537 H   0  0  0  0  0  0  0  0  0  0  0  0
   -2.6581    9.7501   -8.0474 H   0  0  0  0  0  0  0  0  0  0  0  0
   -6.7366   12.3128   -6.9153 H   0  0  0  0  0  0  0  0  0  0  0  0
   -5.4700   14.1039   -6.1424 H   0  0  0  0  0  0  0  0  0  0  0  0
   -3.9148   13.6392   -5.3732 H   0  0  0  0  0  0  0  0  0  0  0  0
   -3.9239   14.3505   -7.0227 H   0  0  0  0  0  0  0  0  0  0  0  0
  1  2  1  0  0  0  0
  1  3  1  0  0  0  0
  1  4  1  0  0  0  0
  2  5  1  0  0  0  0
  3  6  1  0  0  0  0
  5  6  1  0  0  0  0
  6 12  1  0  0  0  0
  7  8  1  0  0  0  0
  7 10  2  0  0  0  0
  7 12  1  0  0  0  0
  8  9  1  0  0  0  0
  8 11  2  0  0  0  0
  9 15  1  0  0  0  0
 10 14  1  0  0  0  0
 12 13  2  0  0  0  0
 14 15  2  0  0  0  0
 14 18  1  0  0  0  0
 15 16  1  0  0  0  0
 16 17  2  0  0  0  0
 17 18  1  0  0  0  0
 18 19  1  0  0  0  0
 19 20  2  0  0  0  0
 20 21  1  0  0  0  0
 20 25  1  0  0  0  0
 21 24  1  0  0  0  0
 22 23  1  0  0  0  0
 22 24  2  0  0  0  0
 23 25  2  0  0  0  0
 23 26  1  0  0  0  0
  1 27  1  0  0  0  0
  2 28  1  0  0  0  0
  2 29  1  0  0  0  0
  3 30  1  0  0  0  0
  3 31  1  0  0  0  0
  4 32  1  0  0  0  0
  5 33  1  0  0  0  0
  5 34  1  0  0  0  0
  9 35  1  0  0  0  0
  9 36  1  0  0  0  0
 10 37  1  0  0  0  0
 18 38  1  0  0  0  0
 19 39  1  0  0  0  0
 21 40  1  0  0  0  0
 21 41  1  0  0  0  0
 22 42  1  0  0  0  0
 24 43  1  0  0  0  0
 25 44  1  0  0  0  0
 26 45  1  0  0  0  0
 26 46  1  0  0  0  0
 26 47  1  0  0  0  0
M  END
> <Name>
13

> <IC50[uM]>
0.006

$$$$
13
  -OEChem-05192314333D
 Structure written by MMmdl.
 47 50  0     1  0  0  0  0  0999 V2000
   -2.2088   12.9419  -10.9697 C   0  0  1  0  0  0  0  0  0  0  0  0
   -2.1904   14.4671  -10.9424 C   0  0  0  0  0  0  0  0  0  0  0  0
   -3.6992   12.5876  -10.8377 C   0  0  0  0  0  0  0  0  0  0  0  0
   -1.6826   12.4744  -12.1795 O   0  0  0  0  0  0  0  0  0  0  0  0
   -3.5107   14.9139  -11.6089 C   0  0  0  0  0  0  0  0  0  0  0  0
   -4.3443   13.7200  -11.5243 N   0  0  0  0  0  0  0  0  0  0  0  0
   -6.3525   12.3601  -12.0338 C   0  0  0  0  0  0  0  0  0  0  0  0
   -6.9727   11.7556  -13.1375 C   0  0  0  0  0  0  0  0  0  0  0  0
   -7.7097   10.5633  -13.0339 C   0  0  0  0  0  0  0  0  0  0  0  0
   -6.5001   11.8056  -10.7491 C   0  0  0  0  0  0  0  0  0  0  0  0
   -6.8506   12.3073  -14.3824 O   0  0  0  0  0  0  0  0  0  0  0  0
   -5.5377   13.6382  -12.2001 C   0  0  0  0  0  0  0  0  0  0  0  0
   -5.9500   14.5444  -12.9177 O   0  0  0  0  0  0  0  0  0  0  0  0
   -7.2308   10.6159  -10.6131 C   0  0  0  0  0  0  0  0  0  0  0  0
   -7.8083   10.0113  -11.7524 C   0  0  0  0  0  0  0  0  0  0  0  0
   -8.4200    8.8675  -11.2880 N   0  0  0  0  0  0  0  0  0  0  0  0
   -8.2847    8.7400   -9.9757 N   0  0  0  0  0  0  0  0  0  0  0  0
   -7.6047    9.7473   -9.5145 C   0  0  0  0  0  0  0  0  0  0  0  0
   -7.3264    9.8951   -8.0245 C   0  0  0  0  0  0  0  0  0  0  0  0
   -5.9604   10.4805   -7.7353 C   0  0  0  0  0  0  0  0  0  0  0  0
   -4.8075    9.7596   -8.0491 C   0  0  0  0  0  0  0  0  0  0  0  0
   -3.4358   11.5809   -7.2415 C   0  0  0  0  0  0  0  0  0  0  0  0
   -4.5835   12.3061   -6.9225 C   0  0  0  0  0  0  0  0  0  0  0  0
   -3.5481   10.3107   -7.8024 C   0  0  0  0  0  0  0  0  0  0  0  0
   -5.8471   11.7541   -7.1666 C   0  0  0  0  0  0  0  0  0  0  0  0
   -4.4650   13.6954   -6.3241 C   0  0  0  0  0  0  0  0  0  0  0  0
   -1.6558   12.5461  -10.1051 H   0  0  0  0  0  0  0  0  0  0  0  0
   -2.1418   14.8314   -9.9056 H   0  0  0  0  0  0  0  0  0  0  0  0
   -1.3273   14.8503  -11.5065 H   0  0  0  0  0  0  0  0  0  0  0  0
   -3.9292   11.6343  -11.3361 H   0  0  0  0  0  0  0  0  0  0  0  0
   -4.0052   12.5329   -9.7825 H   0  0  0  0  0  0  0  0  0  0  0  0
   -1.6986   11.5246  -12.1863 H   0  0  0  0  0  0  0  0  0  0  0  0
   -3.9654   15.7526  -11.0614 H   0  0  0  0  0  0  0  0  0  0  0  0
   -3.3451   15.2065  -12.6563 H   0  0  0  0  0  0  0  0  0  0  0  0
   -8.7298   10.7663  -13.3920 H   0  0  0  0  0  0  0  0  0  0  0  0
   -7.2340    9.8162  -13.6862 H   0  0  0  0  0  0  0  0  0  0  0  0
   -6.0607   12.2852   -9.8870 H   0  0  0  0  0  0  0  0  0  0  0  0
   -6.8802    9.4462  -11.9237 H   0  0  0  0  0  0  0  0  0  0  0  0
   -8.0295    9.6121   -7.2551 H   0  0  0  0  0  0  0  0  0  0  0  0
   -4.8582    8.8181   -7.4825 H   0  0  0  0  0  0  0  0  0  0  0  0
   -4.8529    9.5421   -9.1264 H   0  0  0  0  0  0  0  0  0  0  0  0
   -2.4600   12.0040   -7.0537 H   0  0  0  0  0  0  0  0  0  0  0  0
   -2.6581    9.7501   -8.0474 H   0  0  0  0  0  0  0  0  0  0  0  0
   -6.7366   12.3128   -6.9153 H   0  0  0  0  0  0  0  0  0  0  0  0
   -5.4700   14.1039   -6.1424 H   0  0  0  0  0  0  0  0  0  0  0  0
   -3.9148   13.6392   -5.3732 H   0  0  0  0  0  0  0  0  0  0  0  0
   -3.9239   14.3505   -7.0227 H   0  0  0  0  0  0  0  0  0  0  0  0
  1  2  1  0  0  0  0
  1  3  1  0  0  0  0
  1  4  1  0  0  0  0
  2  5  1  0  0  0  0
  3  6  1  0  0  0  0
  5  6  1  0  0  0  0
  6 12  1  0  0  0  0
  7  8  1  0  0  0  0
  7 10  2  0  0  0  0
  7 12  1  0  0  0  0
  8  9  1  0  0  0  0
  8 11  2  0  0  0  0
  9 15  1  0  0  0  0
 10 14  1  0  0  0  0
 12 13  2  0  0  0  0
 14 15  1  0  0  0  0
 14 18  2  0  0  0  0
 15 16  1  0  0  0  0
 16 17  2  0  0  0  0
 17 18  1  0  0  0  0
 18 19  1  0  0  0  0
 19 20  2  0  0  0  0
 20 21  1  0  0  0  0
 20 25  1  0  0  0  0
 21 24  1  0  0  0  0
 22 23  1  0  0  0  0
 22 24  2  0  0  0  0
 23 25  2  0  0  0  0
 23 26  1  0  0  0  0
  1 27  1  0  0  0  0
  2 28  1  0  0  0  0
  2 29  1  0  0  0  0
  3 30  1  0  0  0  0
  3 31  1  0  0  0  0
  4 32  1  0  0  0  0
  5 33  1  0  0  0  0
  5 34  1  0  0  0  0
  9 35  1  0  0  0  0
  9 36  1  0  0  0  0
 10 37  1  0  0  0  0
 15 38  1  0  0  0  0
 19 39  1  0  0  0  0
 21 40  1  0  0  0  0
 21 41  1  0  0  0  0
 22 42  1  0  0  0  0
 24 43  1  0  0  0  0
 25 44  1  0  0  0  0
 26 45  1  0  0  0  0
 26 46  1  0  0  0  0
 26 47  1  0  0  0  0
M  END
> <Name>
13

> <IC50[uM]>
0.006

$$$$
13
  -OEChem-05192314333D
 Structure written by MMmdl.
 47 50  0     1  0  0  0  0  0999 V2000
   -2.2088   12.9419  -10.9697 C   0  0  1  0  0  0  0  0  0  0  0  0
   -2.1904   14.4671  -10.9424 C   0  0  0  0  0  0  0  0  0  0  0  0
   -3.6992   12.5876  -10.8377 C   0  0  0  0  0  0  0  0  0  0  0  0
   -1.6826   12.4744  -12.1795 O   0  0  0  0  0  0  0  0  0  0  0  0
   -3.5107   14.9139  -11.6089 C   0  0  0  0  0  0  0  0  0  0  0  0
   -4.3443   13.7200  -11.5243 N   0  0  0  0  0  0  0  0  0  0  0  0
   -6.3525   12.3601  -12.0338 C   0  0  0  0  0  0  0  0  0  0  0  0
   -6.9727   11.7556  -13.1375 C   0  0  0  0  0  0  0  0  0  0  0  0
   -7.7097   10.5633  -13.0339 C   0  0  0  0  0  0  0  0  0  0  0  0
   -6.5001   11.8056  -10.7491 C   0  0  0  0  0  0  0  0  0  0  0  0
   -6.8506   12.3073  -14.3824 O   0  0  0  0  0  0  0  0  0  0  0  0
   -5.5377   13.6382  -12.2001 C   0  0  0  0  0  0  0  0  0  0  0  0
   -5.9500   14.5444  -12.9177 O   0  0  0  0  0  0  0  0  0  0  0  0
   -7.2308   10.6159  -10.6131 C   0  0  0  0  0  0  0  0  0  0  0  0
   -7.8083   10.0113  -11.7524 C   0  0  0  0  0  0  0  0  0  0  0  0
   -8.4200    8.8675  -11.2880 N   0  0  0  0  0  0  0  0  0  0  0  0
   -8.2847    8.7400   -9.9757 N   0  0  0  0  0  0  0  0  0  0  0  0
   -7.6047    9.7473   -9.5145 C   0  0  0  0  0  0  0  0  0  0  0  0
   -7.3264    9.8951   -8.0245 C   0  0  0  0  0  0  0  0  0  0  0  0
   -5.9604   10.4805   -7.7353 C   0  0  0  0  0  0  0  0  0  0  0  0
   -4.8075    9.7596   -8.0491 C   0  0  0  0  0  0  0  0  0  0  0  0
   -3.4358   11.5809   -7.2415 C   0  0  0  0  0  0  0  0  0  0  0  0
   -4.5835   12.3061   -6.9225 C   0  0  0  0  0  0  0  0  0  0  0  0
   -3.5481   10.3107   -7.8024 C   0  0  0  0  0  0  0  0  0  0  0  0
   -5.8471   11.7541   -7.1666 C   0  0  0  0  0  0  0  0  0  0  0  0
   -4.4650   13.6954   -6.3241 C   0  0  0  0  0  0  0  0  0  0  0  0
   -1.6558   12.5461  -10.1051 H   0  0  0  0  0  0  0  0  0  0  0  0
   -2.1418   14.8314   -9.9056 H   0  0  0  0  0  0  0  0  0  0  0  0
   -1.3273   14.8503  -11.5065 H   0  0  0  0  0  0  0  0  0  0  0  0
   -3.9292   11.6343  -11.3361 H   0  0  0  0  0  0  0  0  0  0  0  0
   -4.0052   12.5329   -9.7825 H   0  0  0  0  0  0  0  0  0  0  0  0
   -1.6986   11.5246  -12.1863 H   0  0  0  0  0  0  0  0  0  0  0  0
   -3.9654   15.7526  -11.0614 H   0  0  0  0  0  0  0  0  0  0  0  0
   -3.3451   15.2065  -12.6563 H   0  0  0  0  0  0  0  0  0  0  0  0
   -8.7298   10.7663  -13.3920 H   0  0  0  0  0  0  0  0  0  0  0  0
   -7.2340    9.8162  -13.6862 H   0  0  0  0  0  0  0  0  0  0  0  0
   -6.0607   12.2852   -9.8870 H   0  0  0  0  0  0  0  0  0  0  0  0
   -8.0295    9.6121   -7.2551 H   0  0  0  0  0  0  0  0  0  0  0  0
   -4.8582    8.8181   -7.4825 H   0  0  0  0  0  0  0  0  0  0  0  0
   -4.8529    9.5421   -9.1264 H   0  0  0  0  0  0  0  0  0  0  0  0
   -2.4600   12.0040   -7.0537 H   0  0  0  0  0  0  0  0  0  0  0  0
   -3.0270    9.6184   -7.1248 H   0  0  0  0  0  0  0  0  0  0  0  0
   -3.0225   10.3437   -8.7681 H   0  0  0  0  0  0  0  0  0  0  0  0
   -6.7366   12.3128   -6.9153 H   0  0  0  0  0  0  0  0  0  0  0  0
   -5.4700   14.1039   -6.1424 H   0  0  0  0  0  0  0  0  0  0  0  0
   -3.9148   13.6392   -5.3732 H   0  0  0  0  0  0  0  0  0  0  0  0
   -3.9239   14.3505   -7.0227 H   0  0  0  0  0  0  0  0  0  0  0  0
  1  2  1  0  0  0  0
  1  3  1  0  0  0  0
  1  4  1  0  0  0  0
  2  5  1  0  0  0  0
  3  6  1  0  0  0  0
  5  6  1  0  0  0  0
  6 12  1  0  0  0  0
  7  8  1  0  0  0  0
  7 10  2  0  0  0  0
  7 12  1  0  0  0  0
  8  9  1  0  0  0  0
  8 11  2  0  0  0  0
  9 15  1  0  0  0  0
 10 14  1  0  0  0  0
 12 13  2  0  0  0  0
 14 15  2  0  0  0  0
 14 18  1  0  0  0  0
 15 16  1  0  0  0  0
 16 17  2  0  0  0  0
 17 18  1  0  0  0  0
 18 19  2  0  0  0  0
 19 20  1  0  0  0  0
 20 21  1  0  0  0  0
 20 25  2  0  0  0  0
 21 24  1  0  0  0  0
 22 23  2  0  0  0  0
 22 24  1  0  0  0  0
 23 25  1  0  0  0  0
 23 26  1  0  0  0  0
  1 27  1  0  0  0  0
  2 28  1  0  0  0  0
  2 29  1  0  0  0  0
  3 30  1  0  0  0  0
  3 31  1  0  0  0  0
  4 32  1  0  0  0  0
  5 33  1  0  0  0  0
  5 34  1  0  0  0  0
  9 35  1  0  0  0  0
  9 36  1  0  0  0  0
 10 37  1  0  0  0  0
 19 38  1  0  0  0  0
 21 39  1  0  0  0  0
 21 40  1  0  0  0  0
 22 41  1  0  0  0  0
 24 42  1  0  0  0  0
 24 43  1  0  0  0  0
 25 44  1  0  0  0  0
 26 45  1  0  0  0  0
 26 46  1  0  0  0  0
 26 47  1  0  0  0  0
M  END
> <Name>
13

> <IC50[uM]>
0.006

$$$$
13
  -OEChem-05192314333D
 Structure written by MMmdl.
 47 50  0     1  0  0  0  0  0999 V2000
   -2.2088   12.9419  -10.9697 C   0  0  1  0  0  0  0  0  0  0  0  0
   -2.1904   14.4671  -10.9424 C   0  0  0  0  0  0  0  0  0  0  0  0
   -3.6992   12.5876  -10.8377 C   0  0  0  0  0  0  0  0  0  0  0  0
   -1.6826   12.4744  -12.1795 O   0  0  0  0  0  0  0  0  0  0  0  0
   -3.5107   14.9139  -11.6089 C   0  0  0  0  0  0  0  0  0  0  0  0
   -4.3443   13.7200  -11.5243 N   0  0  0  0  0  0  0  0  0  0  0  0
   -6.3525   12.3601  -12.0338 C   0  0  0  0  0  0  0  0  0  0  0  0
   -6.9727   11.7556  -13.1375 C   0  0  0  0  0  0  0  0  0  0  0  0
   -7.7097   10.5633  -13.0339 C   0  0  0  0  0  0  0  0  0  0  0  0
   -6.5001   11.8056  -10.7491 C   0  0  0  0  0  0  0  0  0  0  0  0
   -6.8506   12.3073  -14.3824 O   0  0  0  0  0  0  0  0  0  0  0  0
   -5.5377   13.6382  -12.2001 C   0  0  0  0  0  0  0  0  0  0  0  0
   -5.9500   14.5444  -12.9177 O   0  0  0  0  0  0  0  0  0  0  0  0
   -7.2308   10.6159  -10.6131 C   0  0  0  0  0  0  0  0  0  0  0  0
   -7.8083   10.0113  -11.7524 C   0  0  0  0  0  0  0  0  0  0  0  0
   -8.4200    8.8675  -11.2880 N   0  0  0  0  0  0  0  0  0  0  0  0
   -8.2847    8.7400   -9.9757 N   0  0  0  0  0  0  0  0  0  0  0  0
   -7.6047    9.7473   -9.5145 C   0  0  0  0  0  0  0  0  0  0  0  0
   -7.3264    9.8951   -8.0245 C   0  0  0  0  0  0  0  0  0  0  0  0
   -5.9604   10.4805   -7.7353 C   0  0  0  0  0  0  0  0  0  0  0  0
   -4.8075    9.7596   -8.0491 C   0  0  0  0  0  0  0  0  0  0  0  0
   -3.4358   11.5809   -7.2415 C   0  0  0  0  0  0  0  0  0  0  0  0
   -4.5835   12.3061   -6.9225 C   0  0  0  0  0  0  0  0  0  0  0  0
   -3.5481   10.3107   -7.8024 C   0  0  0  0  0  0  0  0  0  0  0  0
   -5.8471   11.7541   -7.1666 C   0  0  0  0  0  0  0  0  0  0  0  0
   -4.4650   13.6954   -6.3241 C   0  0  0  0  0  0  0  0  0  0  0  0
   -1.6558   12.5461  -10.1051 H   0  0  0  0  0  0  0  0  0  0  0  0
   -2.1418   14.8314   -9.9056 H   0  0  0  0  0  0  0  0  0  0  0  0
   -1.3273   14.8503  -11.5065 H   0  0  0  0  0  0  0  0  0  0  0  0
   -3.9292   11.6343  -11.3361 H   0  0  0  0  0  0  0  0  0  0  0  0
   -4.0052   12.5329   -9.7825 H   0  0  0  0  0  0  0  0  0  0  0  0
   -1.6986   11.5246  -12.1863 H   0  0  0  0  0  0  0  0  0  0  0  0
   -3.9654   15.7526  -11.0614 H   0  0  0  0  0  0  0  0  0  0  0  0
   -3.3451   15.2065  -12.6563 H   0  0  0  0  0  0  0  0  0  0  0  0
   -8.7298   10.7663  -13.3920 H   0  0  0  0  0  0  0  0  0  0  0  0
   -7.2340    9.8162  -13.6862 H   0  0  0  0  0  0  0  0  0  0  0  0
   -6.0607   12.2852   -9.8870 H   0  0  0  0  0  0  0  0  0  0  0  0
   -8.0295    9.6121   -7.2551 H   0  0  0  0  0  0  0  0  0  0  0  0
   -4.8892    8.7741   -8.4833 H   0  0  0  0  0  0  0  0  0  0  0  0
   -2.8612   12.1924   -7.9527 H   0  0  0  0  0  0  0  0  0  0  0  0
   -2.8628   11.4670   -6.3094 H   0  0  0  0  0  0  0  0  0  0  0  0
   -4.5836   11.8682   -5.9134 H   0  0  0  0  0  0  0  0  0  0  0  0
   -2.6581    9.7501   -8.0474 H   0  0  0  0  0  0  0  0  0  0  0  0
   -6.7366   12.3128   -6.9153 H   0  0  0  0  0  0  0  0  0  0  0  0
   -5.4700   14.1039   -6.1424 H   0  0  0  0  0  0  0  0  0  0  0  0
   -3.9148   13.6392   -5.3732 H   0  0  0  0  0  0  0  0  0  0  0  0
   -3.9239   14.3505   -7.0227 H   0  0  0  0  0  0  0  0  0  0  0  0
  1  2  1  0  0  0  0
  1  3  1  0  0  0  0
  1  4  1  0  0  0  0
  2  5  1  0  0  0  0
  3  6  1  0  0  0  0
  5  6  1  0  0  0  0
  6 12  1  0  0  0  0
  7  8  1  0  0  0  0
  7 10  2  0  0  0  0
  7 12  1  0  0  0  0
  8  9  1  0  0  0  0
  8 11  2  0  0  0  0
  9 15  1  0  0  0  0
 10 14  1  0  0  0  0
 12 13  2  0  0  0  0
 14 15  2  0  0  0  0
 14 18  1  0  0  0  0
 15 16  1  0  0  0  0
 16 17  2  0  0  0  0
 17 18  1  0  0  0  0
 18 19  2  0  0  0  0
 19 20  1  0  0  0  0
 20 21  1  0  0  0  0
 20 25  2  0  0  0  0
 21 24  2  0  0  0  0
 22 23  1  0  0  0  0
 22 24  1  0  0  0  0
 23 25  1  0  0  0  0
 23 26  1  0  0  0  0
  1 27  1  0  0  0  0
  2 28  1  0  0  0  0
  2 29  1  0  0  0  0
  3 30  1  0  0  0  0
  3 31  1  0  0  0  0
  4 32  1  0  0  0  0
  5 33  1  0  0  0  0
  5 34  1  0  0  0  0
  9 35  1  0  0  0  0
  9 36  1  0  0  0  0
 10 37  1  0  0  0  0
 19 38  1  0  0  0  0
 21 39  1  0  0  0  0
 22 40  1  0  0  0  0
 22 41  1  0  0  0  0
 23 42  1  0  0  0  0
 24 43  1  0  0  0  0
 25 44  1  0  0  0  0
 26 45  1  0  0  0  0
 26 46  1  0  0  0  0
 26 47  1  0  0  0  0
M  END
> <Name>
13

> <IC50[uM]>
0.006

$$$$
13
  -OEChem-05192314333D
 Structure written by MMmdl.
 47 50  0     1  0  0  0  0  0999 V2000
   -2.2088   12.9419  -10.9697 C   0  0  1  0  0  0  0  0  0  0  0  0
   -2.1904   14.4671  -10.9424 C   0  0  0  0  0  0  0  0  0  0  0  0
   -3.6992   12.5876  -10.8377 C   0  0  0  0  0  0  0  0  0  0  0  0
   -1.6826   12.4744  -12.1795 O   0  0  0  0  0  0  0  0  0  0  0  0
   -3.5107   14.9139  -11.6089 C   0  0  0  0  0  0  0  0  0  0  0  0
   -4.3443   13.7200  -11.5243 N   0  0  0  0  0  0  0  0  0  0  0  0
   -6.3525   12.3601  -12.0338 C   0  0  0  0  0  0  0  0  0  0  0  0
   -6.9727   11.7556  -13.1375 C   0  0  0  0  0  0  0  0  0  0  0  0
   -7.7097   10.5633  -13.0339 C   0  0  0  0  0  0  0  0  0  0  0  0
   -6.5001   11.8056  -10.7491 C   0  0  0  0  0  0  0  0  0  0  0  0
   -6.8506   12.3073  -14.3824 O   0  0  0  0  0  0  0  0  0  0  0  0
   -5.5377   13.6382  -12.2001 C   0  0  0  0  0  0  0  0  0  0  0  0
   -5.9500   14.5444  -12.9177 O   0  0  0  0  0  0  0  0  0  0  0  0
   -7.2308   10.6159  -10.6131 C   0  0  0  0  0  0  0  0  0  0  0  0
   -7.8083   10.0113  -11.7524 C   0  0  0  0  0  0  0  0  0  0  0  0
   -8.4200    8.8675  -11.2880 N   0  0  0  0  0  0  0  0  0  0  0  0
   -8.2847    8.7400   -9.9757 N   0  0  0  0  0  0  0  0  0  0  0  0
   -7.6047    9.7473   -9.5145 C   0  0  0  0  0  0  0  0  0  0  0  0
   -7.3264    9.8951   -8.0245 C   0  0  0  0  0  0  0  0  0  0  0  0
   -5.9604   10.4805   -7.7353 C   0  0  0  0  0  0  0  0  0  0  0  0
   -4.8075    9.7596   -8.0491 C   0  0  0  0  0  0  0  0  0  0  0  0
   -3.4358   11.5809   -7.2415 C   0  0  0  0  0  0  0  0  0  0  0  0
   -4.5835   12.3061   -6.9225 C   0  0  0  0  0  0  0  0  0  0  0  0
   -3.5481   10.3107   -7.8024 C   0  0  0  0  0  0  0  0  0  0  0  0
   -5.8471   11.7541   -7.1666 C   0  0  0  0  0  0  0  0  0  0  0  0
   -4.4650   13.6954   -6.3241 C   0  0  0  0  0  0  0  0  0  0  0  0
   -1.6558   12.5461  -10.1051 H   0  0  0  0  0  0  0  0  0  0  0  0
   -2.1418   14.8314   -9.9056 H   0  0  0  0  0  0  0  0  0  0  0  0
   -1.3273   14.8503  -11.5065 H   0  0  0  0  0  0  0  0  0  0  0  0
   -3.9292   11.6343  -11.3361 H   0  0  0  0  0  0  0  0  0  0  0  0
   -4.0052   12.5329   -9.7825 H   0  0  0  0  0  0  0  0  0  0  0  0
   -1.6986   11.5246  -12.1863 H   0  0  0  0  0  0  0  0  0  0  0  0
   -3.9654   15.7526  -11.0614 H   0  0  0  0  0  0  0  0  0  0  0  0
   -3.3451   15.2065  -12.6563 H   0  0  0  0  0  0  0  0  0  0  0  0
   -8.7298   10.7663  -13.3920 H   0  0  0  0  0  0  0  0  0  0  0  0
   -7.2340    9.8162  -13.6862 H   0  0  0  0  0  0  0  0  0  0  0  0
   -6.0607   12.2852   -9.8870 H   0  0  0  0  0  0  0  0  0  0  0  0
   -8.0295    9.6121   -7.2551 H   0  0  0  0  0  0  0  0  0  0  0  0
   -5.9749   10.0291   -6.7323 H   0  0  0  0  0  0  0  0  0  0  0  0
   -4.8892    8.7741   -8.4833 H   0  0  0  0  0  0  0  0  0  0  0  0
   -2.8612   12.1924   -7.9527 H   0  0  0  0  0  0  0  0  0  0  0  0
   -2.8628   11.4670   -6.3094 H   0  0  0  0  0  0  0  0  0  0  0  0
   -2.6581    9.7501   -8.0474 H   0  0  0  0  0  0  0  0  0  0  0  0
   -6.7366   12.3128   -6.9153 H   0  0  0  0  0  0  0  0  0  0  0  0
   -5.4700   14.1039   -6.1424 H   0  0  0  0  0  0  0  0  0  0  0  0
   -3.9148   13.6392   -5.3732 H   0  0  0  0  0  0  0  0  0  0  0  0
   -3.9239   14.3505   -7.0227 H   0  0  0  0  0  0  0  0  0  0  0  0
  1  2  1  0  0  0  0
  1  3  1  0  0  0  0
  1  4  1  0  0  0  0
  2  5  1  0  0  0  0
  3  6  1  0  0  0  0
  5  6  1  0  0  0  0
  6 12  1  0  0  0  0
  7  8  1  0  0  0  0
  7 10  2  0  0  0  0
  7 12  1  0  0  0  0
  8  9  1  0  0  0  0
  8 11  2  0  0  0  0
  9 15  1  0  0  0  0
 10 14  1  0  0  0  0
 12 13  2  0  0  0  0
 14 15  2  0  0  0  0
 14 18  1  0  0  0  0
 15 16  1  0  0  0  0
 16 17  2  0  0  0  0
 17 18  1  0  0  0  0
 18 19  2  0  0  0  0
 19 20  1  0  0  0  0
 20 21  1  0  0  0  0
 20 25  1  0  0  0  0
 21 24  2  0  0  0  0
 22 23  1  0  0  0  0
 22 24  1  0  0  0  0
 23 25  2  0  0  0  0
 23 26  1  0  0  0  0
  1 27  1  0  0  0  0
  2 28  1  0  0  0  0
  2 29  1  0  0  0  0
  3 30  1  0  0  0  0
  3 31  1  0  0  0  0
  4 32  1  0  0  0  0
  5 33  1  0  0  0  0
  5 34  1  0  0  0  0
  9 35  1  0  0  0  0
  9 36  1  0  0  0  0
 10 37  1  0  0  0  0
 19 38  1  0  0  0  0
 20 39  1  0  0  0  0
 21 40  1  0  0  0  0
 22 41  1  0  0  0  0
 22 42  1  0  0  0  0
 24 43  1  0  0  0  0
 25 44  1  0  0  0  0
 26 45  1  0  0  0  0
 26 46  1  0  0  0  0
 26 47  1  0  0  0  0
M  END
> <Name>
13

> <IC50[uM]>
0.006

$$$$
13
  -OEChem-05192314333D
 Structure written by MMmdl.
 47 50  0     1  0  0  0  0  0999 V2000
   -2.2088   12.9419  -10.9697 C   0  0  1  0  0  0  0  0  0  0  0  0
   -2.1904   14.4671  -10.9424 C   0  0  0  0  0  0  0  0  0  0  0  0
   -3.6992   12.5876  -10.8377 C   0  0  0  0  0  0  0  0  0  0  0  0
   -1.6826   12.4744  -12.1795 O   0  0  0  0  0  0  0  0  0  0  0  0
   -3.5107   14.9139  -11.6089 C   0  0  0  0  0  0  0  0  0  0  0  0
   -4.3443   13.7200  -11.5243 N   0  0  0  0  0  0  0  0  0  0  0  0
   -6.3525   12.3601  -12.0338 C   0  0  0  0  0  0  0  0  0  0  0  0
   -6.9727   11.7556  -13.1375 C   0  0  0  0  0  0  0  0  0  0  0  0
   -7.7097   10.5633  -13.0339 C   0  0  0  0  0  0  0  0  0  0  0  0
   -6.5001   11.8056  -10.7491 C   0  0  0  0  0  0  0  0  0  0  0  0
   -6.8506   12.3073  -14.3824 O   0  0  0  0  0  0  0  0  0  0  0  0
   -5.5377   13.6382  -12.2001 C   0  0  0  0  0  0  0  0  0  0  0  0
   -5.9500   14.5444  -12.9177 O   0  0  0  0  0  0  0  0  0  0  0  0
   -7.2308   10.6159  -10.6131 C   0  0  0  0  0  0  0  0  0  0  0  0
   -7.8083   10.0113  -11.7524 C   0  0  0  0  0  0  0  0  0  0  0  0
   -8.4200    8.8675  -11.2880 N   0  0  0  0  0  0  0  0  0  0  0  0
   -8.2847    8.7400   -9.9757 N   0  0  0  0  0  0  0  0  0  0  0  0
   -7.6047    9.7473   -9.5145 C   0  0  0  0  0  0  0  0  0  0  0  0
   -7.3264    9.8951   -8.0245 C   0  0  0  0  0  0  0  0  0  0  0  0
   -5.9604   10.4805   -7.7353 C   0  0  0  0  0  0  0  0  0  0  0  0
   -4.8075    9.7596   -8.0491 C   0  0  0  0  0  0  0  0  0  0  0  0
   -3.4358   11.5809   -7.2415 C   0  0  0  0  0  0  0  0  0  0  0  0
   -4.5835   12.3061   -6.9225 C   0  0  0  0  0  0  0  0  0  0  0  0
   -3.5481   10.3107   -7.8024 C   0  0  0  0  0  0  0  0  0  0  0  0
   -5.8471   11.7541   -7.1666 C   0  0  0  0  0  0  0  0  0  0  0  0
   -4.4650   13.6954   -6.3241 C   0  0  0  0  0  0  0  0  0  0  0  0
   -1.6558   12.5461  -10.1051 H   0  0  0  0  0  0  0  0  0  0  0  0
   -2.1418   14.8314   -9.9056 H   0  0  0  0  0  0  0  0  0  0  0  0
   -1.3273   14.8503  -11.5065 H   0  0  0  0  0  0  0  0  0  0  0  0
   -3.9292   11.6343  -11.3361 H   0  0  0  0  0  0  0  0  0  0  0  0
   -4.0052   12.5329   -9.7825 H   0  0  0  0  0  0  0  0  0  0  0  0
   -1.6986   11.5246  -12.1863 H   0  0  0  0  0  0  0  0  0  0  0  0
   -3.9654   15.7526  -11.0614 H   0  0  0  0  0  0  0  0  0  0  0  0
   -3.3451   15.2065  -12.6563 H   0  0  0  0  0  0  0  0  0  0  0  0
   -8.7298   10.7663  -13.3920 H   0  0  0  0  0  0  0  0  0  0  0  0
   -7.2340    9.8162  -13.6862 H   0  0  0  0  0  0  0  0  0  0  0  0
   -6.0607   12.2852   -9.8870 H   0  0  0  0  0  0  0  0  0  0  0  0
   -6.6702    9.1804   -9.6379 H   0  0  0  0  0  0  0  0  0  0  0  0
   -8.0295    9.6121   -7.2551 H   0  0  0  0  0  0  0  0  0  0  0  0
   -4.8892    8.7741   -8.4833 H   0  0  0  0  0  0  0  0  0  0  0  0
   -2.8612   12.1924   -7.9527 H   0  0  0  0  0  0  0  0  0  0  0  0
   -2.8628   11.4670   -6.3094 H   0  0  0  0  0  0  0  0  0  0  0  0
   -2.6581    9.7501   -8.0474 H   0  0  0  0  0  0  0  0  0  0  0  0
   -6.7366   12.3128   -6.9153 H   0  0  0  0  0  0  0  0  0  0  0  0
   -5.4700   14.1039   -6.1424 H   0  0  0  0  0  0  0  0  0  0  0  0
   -3.9148   13.6392   -5.3732 H   0  0  0  0  0  0  0  0  0  0  0  0
   -3.9239   14.3505   -7.0227 H   0  0  0  0  0  0  0  0  0  0  0  0
  1  2  1  0  0  0  0
  1  3  1  0  0  0  0
  1  4  1  0  0  0  0
  2  5  1  0  0  0  0
  3  6  1  0  0  0  0
  5  6  1  0  0  0  0
  6 12  1  0  0  0  0
  7  8  1  0  0  0  0
  7 10  2  0  0  0  0
  7 12  1  0  0  0  0
  8  9  1  0  0  0  0
  8 11  2  0  0  0  0
  9 15  1  0  0  0  0
 10 14  1  0  0  0  0
 12 13  2  0  0  0  0
 14 15  2  0  0  0  0
 14 18  1  0  0  0  0
 15 16  1  0  0  0  0
 16 17  2  0  0  0  0
 17 18  1  0  0  0  0
 18 19  1  0  0  0  0
 19 20  2  0  0  0  0
 20 21  1  0  0  0  0
 20 25  1  0  0  0  0
 21 24  2  0  0  0  0
 22 23  1  0  0  0  0
 22 24  1  0  0  0  0
 23 25  2  0  0  0  0
 23 26  1  0  0  0  0
  1 27  1  0  0  0  0
  2 28  1  0  0  0  0
  2 29  1  0  0  0  0
  3 30  1  0  0  0  0
  3 31  1  0  0  0  0
  4 32  1  0  0  0  0
  5 33  1  0  0  0  0
  5 34  1  0  0  0  0
  9 35  1  0  0  0  0
  9 36  1  0  0  0  0
 10 37  1  0  0  0  0
 18 38  1  0  0  0  0
 19 39  1  0  0  0  0
 21 40  1  0  0  0  0
 22 41  1  0  0  0  0
 22 42  1  0  0  0  0
 24 43  1  0  0  0  0
 25 44  1  0  0  0  0
 26 45  1  0  0  0  0
 26 46  1  0  0  0  0
 26 47  1  0  0  0  0
M  END
> <Name>
13

> <IC50[uM]>
0.006

$$$$
13
  -OEChem-05192314333D
 Structure written by MMmdl.
 47 50  0     1  0  0  0  0  0999 V2000
   -2.2088   12.9419  -10.9697 C   0  0  1  0  0  0  0  0  0  0  0  0
   -2.1904   14.4671  -10.9424 C   0  0  0  0  0  0  0  0  0  0  0  0
   -3.6992   12.5876  -10.8377 C   0  0  0  0  0  0  0  0  0  0  0  0
   -1.6826   12.4744  -12.1795 O   0  0  0  0  0  0  0  0  0  0  0  0
   -3.5107   14.9139  -11.6089 C   0  0  0  0  0  0  0  0  0  0  0  0
   -4.3443   13.7200  -11.5243 N   0  0  0  0  0  0  0  0  0  0  0  0
   -6.3525   12.3601  -12.0338 C   0  0  0  0  0  0  0  0  0  0  0  0
   -6.9727   11.7556  -13.1375 C   0  0  0  0  0  0  0  0  0  0  0  0
   -7.7097   10.5633  -13.0339 C   0  0  0  0  0  0  0  0  0  0  0  0
   -6.5001   11.8056  -10.7491 C   0  0  0  0  0  0  0  0  0  0  0  0
   -6.8506   12.3073  -14.3824 O   0  0  0  0  0  0  0  0  0  0  0  0
   -5.5377   13.6382  -12.2001 C   0  0  0  0  0  0  0  0  0  0  0  0
   -5.9500   14.5444  -12.9177 O   0  0  0  0  0  0  0  0  0  0  0  0
   -7.2308   10.6159  -10.6131 C   0  0  0  0  0  0  0  0  0  0  0  0
   -7.8083   10.0113  -11.7524 C   0  0  0  0  0  0  0  0  0  0  0  0
   -8.4200    8.8675  -11.2880 N   0  0  0  0  0  0  0  0  0  0  0  0
   -8.2847    8.7400   -9.9757 N   0  0  0  0  0  0  0  0  0  0  0  0
   -7.6047    9.7473   -9.5145 C   0  0  0  0  0  0  0  0  0  0  0  0
   -7.3264    9.8951   -8.0245 C   0  0  0  0  0  0  0  0  0  0  0  0
   -5.9604   10.4805   -7.7353 C   0  0  0  0  0  0  0  0  0  0  0  0
   -4.8075    9.7596   -8.0491 C   0  0  0  0  0  0  0  0  0  0  0  0
   -3.4358   11.5809   -7.2415 C   0  0  0  0  0  0  0  0  0  0  0  0
   -4.5835   12.3061   -6.9225 C   0  0  0  0  0  0  0  0  0  0  0  0
   -3.5481   10.3107   -7.8024 C   0  0  0  0  0  0  0  0  0  0  0  0
   -5.8471   11.7541   -7.1666 C   0  0  0  0  0  0  0  0  0  0  0  0
   -4.4650   13.6954   -6.3241 C   0  0  0  0  0  0  0  0  0  0  0  0
   -1.6558   12.5461  -10.1051 H   0  0  0  0  0  0  0  0  0  0  0  0
   -2.1418   14.8314   -9.9056 H   0  0  0  0  0  0  0  0  0  0  0  0
   -1.3273   14.8503  -11.5065 H   0  0  0  0  0  0  0  0  0  0  0  0
   -3.9292   11.6343  -11.3361 H   0  0  0  0  0  0  0  0  0  0  0  0
   -4.0052   12.5329   -9.7825 H   0  0  0  0  0  0  0  0  0  0  0  0
   -1.6986   11.5246  -12.1863 H   0  0  0  0  0  0  0  0  0  0  0  0
   -3.9654   15.7526  -11.0614 H   0  0  0  0  0  0  0  0  0  0  0  0
   -3.3451   15.2065  -12.6563 H   0  0  0  0  0  0  0  0  0  0  0  0
   -8.7298   10.7663  -13.3920 H   0  0  0  0  0  0  0  0  0  0  0  0
   -7.2340    9.8162  -13.6862 H   0  0  0  0  0  0  0  0  0  0  0  0
   -6.0607   12.2852   -9.8870 H   0  0  0  0  0  0  0  0  0  0  0  0
   -6.8802    9.4462  -11.9237 H   0  0  0  0  0  0  0  0  0  0  0  0
   -8.0295    9.6121   -7.2551 H   0  0  0  0  0  0  0  0  0  0  0  0
   -4.8892    8.7741   -8.4833 H   0  0  0  0  0  0  0  0  0  0  0  0
   -2.8612   12.1924   -7.9527 H   0  0  0  0  0  0  0  0  0  0  0  0
   -2.8628   11.4670   -6.3094 H   0  0  0  0  0  0  0  0  0  0  0  0
   -2.6581    9.7501   -8.0474 H   0  0  0  0  0  0  0  0  0  0  0  0
   -6.7366   12.3128   -6.9153 H   0  0  0  0  0  0  0  0  0  0  0  0
   -5.4700   14.1039   -6.1424 H   0  0  0  0  0  0  0  0  0  0  0  0
   -3.9148   13.6392   -5.3732 H   0  0  0  0  0  0  0  0  0  0  0  0
   -3.9239   14.3505   -7.0227 H   0  0  0  0  0  0  0  0  0  0  0  0
  1  2  1  0  0  0  0
  1  3  1  0  0  0  0
  1  4  1  0  0  0  0
  2  5  1  0  0  0  0
  3  6  1  0  0  0  0
  5  6  1  0  0  0  0
  6 12  1  0  0  0  0
  7  8  1  0  0  0  0
  7 10  2  0  0  0  0
  7 12  1  0  0  0  0
  8  9  1  0  0  0  0
  8 11  2  0  0  0  0
  9 15  1  0  0  0  0
 10 14  1  0  0  0  0
 12 13  2  0  0  0  0
 14 15  1  0  0  0  0
 14 18  2  0  0  0  0
 15 16  1  0  0  0  0
 16 17  2  0  0  0  0
 17 18  1  0  0  0  0
 18 19  1  0  0  0  0
 19 20  2  0  0  0  0
 20 21  1  0  0  0  0
 20 25  1  0  0  0  0
 21 24  2  0  0  0  0
 22 23  1  0  0  0  0
 22 24  1  0  0  0  0
 23 25  2  0  0  0  0
 23 26  1  0  0  0  0
  1 27  1  0  0  0  0
  2 28  1  0  0  0  0
  2 29  1  0  0  0  0
  3 30  1  0  0  0  0
  3 31  1  0  0  0  0
  4 32  1  0  0  0  0
  5 33  1  0  0  0  0
  5 34  1  0  0  0  0
  9 35  1  0  0  0  0
  9 36  1  0  0  0  0
 10 37  1  0  0  0  0
 15 38  1  0  0  0  0
 19 39  1  0  0  0  0
 21 40  1  0  0  0  0
 22 41  1  0  0  0  0
 22 42  1  0  0  0  0
 24 43  1  0  0  0  0
 25 44  1  0  0  0  0
 26 45  1  0  0  0  0
 26 46  1  0  0  0  0
 26 47  1  0  0  0  0
M  END
> <Name>
13

> <IC50[uM]>
0.006

$$$$
13
  -OEChem-05192314333D
 Structure written by MMmdl.
 47 50  0     1  0  0  0  0  0999 V2000
   -2.2088   12.9419  -10.9697 C   0  0  1  0  0  0  0  0  0  0  0  0
   -2.1904   14.4671  -10.9424 C   0  0  0  0  0  0  0  0  0  0  0  0
   -3.6992   12.5876  -10.8377 C   0  0  0  0  0  0  0  0  0  0  0  0
   -1.6826   12.4744  -12.1795 O   0  0  0  0  0  0  0  0  0  0  0  0
   -3.5107   14.9139  -11.6089 C   0  0  0  0  0  0  0  0  0  0  0  0
   -4.3443   13.7200  -11.5243 N   0  0  0  0  0  0  0  0  0  0  0  0
   -6.3525   12.3601  -12.0338 C   0  0  0  0  0  0  0  0  0  0  0  0
   -6.9727   11.7556  -13.1375 C   0  0  0  0  0  0  0  0  0  0  0  0
   -7.7097   10.5633  -13.0339 C   0  0  0  0  0  0  0  0  0  0  0  0
   -6.5001   11.8056  -10.7491 C   0  0  0  0  0  0  0  0  0  0  0  0
   -6.8506   12.3073  -14.3824 O   0  0  0  0  0  0  0  0  0  0  0  0
   -5.5377   13.6382  -12.2001 C   0  0  0  0  0  0  0  0  0  0  0  0
   -5.9500   14.5444  -12.9177 O   0  0  0  0  0  0  0  0  0  0  0  0
   -7.2308   10.6159  -10.6131 C   0  0  0  0  0  0  0  0  0  0  0  0
   -7.8083   10.0113  -11.7524 C   0  0  0  0  0  0  0  0  0  0  0  0
   -8.4200    8.8675  -11.2880 N   0  0  0  0  0  0  0  0  0  0  0  0
   -8.2847    8.7400   -9.9757 N   0  0  0  0  0  0  0  0  0  0  0  0
   -7.6047    9.7473   -9.5145 C   0  0  0  0  0  0  0  0  0  0  0  0
   -7.3264    9.8951   -8.0245 C   0  0  0  0  0  0  0  0  0  0  0  0
   -5.9604   10.4805   -7.7353 C   0  0  0  0  0  0  0  0  0  0  0  0
   -4.8075    9.7596   -8.0491 C   0  0  0  0  0  0  0  0  0  0  0  0
   -3.4358   11.5809   -7.2415 C   0  0  0  0  0  0  0  0  0  0  0  0
   -4.5835   12.3061   -6.9225 C   0  0  0  0  0  0  0  0  0  0  0  0
   -3.5481   10.3107   -7.8024 C   0  0  0  0  0  0  0  0  0  0  0  0
   -5.8471   11.7541   -7.1666 C   0  0  0  0  0  0  0  0  0  0  0  0
   -4.4650   13.6954   -6.3241 C   0  0  0  0  0  0  0  0  0  0  0  0
   -1.6558   12.5461  -10.1051 H   0  0  0  0  0  0  0  0  0  0  0  0
   -2.1418   14.8314   -9.9056 H   0  0  0  0  0  0  0  0  0  0  0  0
   -1.3273   14.8503  -11.5065 H   0  0  0  0  0  0  0  0  0  0  0  0
   -3.9292   11.6343  -11.3361 H   0  0  0  0  0  0  0  0  0  0  0  0
   -4.0052   12.5329   -9.7825 H   0  0  0  0  0  0  0  0  0  0  0  0
   -1.6986   11.5246  -12.1863 H   0  0  0  0  0  0  0  0  0  0  0  0
   -3.9654   15.7526  -11.0614 H   0  0  0  0  0  0  0  0  0  0  0  0
   -3.3451   15.2065  -12.6563 H   0  0  0  0  0  0  0  0  0  0  0  0
   -8.7298   10.7663  -13.3920 H   0  0  0  0  0  0  0  0  0  0  0  0
   -7.2340    9.8162  -13.6862 H   0  0  0  0  0  0  0  0  0  0  0  0
   -6.0607   12.2852   -9.8870 H   0  0  0  0  0  0  0  0  0  0  0  0
   -8.0295    9.6121   -7.2551 H   0  0  0  0  0  0  0  0  0  0  0  0
   -4.8892    8.7741   -8.4833 H   0  0  0  0  0  0  0  0  0  0  0  0
   -2.8612   12.1924   -7.9527 H   0  0  0  0  0  0  0  0  0  0  0  0
   -2.8628   11.4670   -6.3094 H   0  0  0  0  0  0  0  0  0  0  0  0
   -3.0270    9.6184   -7.1248 H   0  0  0  0  0  0  0  0  0  0  0  0
   -3.0225   10.3437   -8.7681 H   0  0  0  0  0  0  0  0  0  0  0  0
   -6.7366   12.3128   -6.9153 H   0  0  0  0  0  0  0  0  0  0  0  0
   -5.4700   14.1039   -6.1424 H   0  0  0  0  0  0  0  0  0  0  0  0
   -3.9148   13.6392   -5.3732 H   0  0  0  0  0  0  0  0  0  0  0  0
   -3.9239   14.3505   -7.0227 H   0  0  0  0  0  0  0  0  0  0  0  0
  1  2  1  0  0  0  0
  1  3  1  0  0  0  0
  1  4  1  0  0  0  0
  2  5  1  0  0  0  0
  3  6  1  0  0  0  0
  5  6  1  0  0  0  0
  6 12  1  0  0  0  0
  7  8  1  0  0  0  0
  7 10  2  0  0  0  0
  7 12  1  0  0  0  0
  8  9  1  0  0  0  0
  8 11  2  0  0  0  0
  9 15  1  0  0  0  0
 10 14  1  0  0  0  0
 12 13  2  0  0  0  0
 14 15  2  0  0  0  0
 14 18  1  0  0  0  0
 15 16  1  0  0  0  0
 16 17  2  0  0  0  0
 17 18  1  0  0  0  0
 18 19  2  0  0  0  0
 19 20  1  0  0  0  0
 20 21  2  0  0  0  0
 20 25  1  0  0  0  0
 21 24  1  0  0  0  0
 22 23  1  0  0  0  0
 22 24  1  0  0  0  0
 23 25  2  0  0  0  0
 23 26  1  0  0  0  0
  1 27  1  0  0  0  0
  2 28  1  0  0  0  0
  2 29  1  0  0  0  0
  3 30  1  0  0  0  0
  3 31  1  0  0  0  0
  4 32  1  0  0  0  0
  5 33  1  0  0  0  0
  5 34  1  0  0  0  0
  9 35  1  0  0  0  0
  9 36  1  0  0  0  0
 10 37  1  0  0  0  0
 19 38  1  0  0  0  0
 21 39  1  0  0  0  0
 22 40  1  0  0  0  0
 22 41  1  0  0  0  0
 24 42  1  0  0  0  0
 24 43  1  0  0  0  0
 25 44  1  0  0  0  0
 26 45  1  0  0  0  0
 26 46  1  0  0  0  0
 26 47  1  0  0  0  0
M  END
> <Name>
13

> <IC50[uM]>
0.006

$$$$
13
  -OEChem-05192314333D
 Structure written by MMmdl.
 47 50  0     1  0  0  0  0  0999 V2000
   -2.2088   12.9419  -10.9697 C   0  0  1  0  0  0  0  0  0  0  0  0
   -2.1904   14.4671  -10.9424 C   0  0  0  0  0  0  0  0  0  0  0  0
   -3.6992   12.5876  -10.8377 C   0  0  0  0  0  0  0  0  0  0  0  0
   -1.6826   12.4744  -12.1795 O   0  0  0  0  0  0  0  0  0  0  0  0
   -3.5107   14.9139  -11.6089 C   0  0  0  0  0  0  0  0  0  0  0  0
   -4.3443   13.7200  -11.5243 N   0  0  0  0  0  0  0  0  0  0  0  0
   -6.3525   12.3601  -12.0338 C   0  0  0  0  0  0  0  0  0  0  0  0
   -6.9727   11.7556  -13.1375 C   0  0  0  0  0  0  0  0  0  0  0  0
   -7.7097   10.5633  -13.0339 C   0  0  0  0  0  0  0  0  0  0  0  0
   -6.5001   11.8056  -10.7491 C   0  0  0  0  0  0  0  0  0  0  0  0
   -6.8506   12.3073  -14.3824 O   0  0  0  0  0  0  0  0  0  0  0  0
   -5.5377   13.6382  -12.2001 C   0  0  0  0  0  0  0  0  0  0  0  0
   -5.9500   14.5444  -12.9177 O   0  0  0  0  0  0  0  0  0  0  0  0
   -7.2308   10.6159  -10.6131 C   0  0  0  0  0  0  0  0  0  0  0  0
   -7.8083   10.0113  -11.7524 C   0  0  0  0  0  0  0  0  0  0  0  0
   -8.4200    8.8675  -11.2880 N   0  0  0  0  0  0  0  0  0  0  0  0
   -8.2847    8.7400   -9.9757 N   0  0  0  0  0  0  0  0  0  0  0  0
   -7.6047    9.7473   -9.5145 C   0  0  0  0  0  0  0  0  0  0  0  0
   -7.3264    9.8951   -8.0245 C   0  0  0  0  0  0  0  0  0  0  0  0
   -5.9604   10.4805   -7.7353 C   0  0  0  0  0  0  0  0  0  0  0  0
   -4.8075    9.7596   -8.0491 C   0  0  0  0  0  0  0  0  0  0  0  0
   -3.4358   11.5809   -7.2415 C   0  0  0  0  0  0  0  0  0  0  0  0
   -4.5835   12.3061   -6.9225 C   0  0  0  0  0  0  0  0  0  0  0  0
   -3.5481   10.3107   -7.8024 C   0  0  0  0  0  0  0  0  0  0  0  0
   -5.8471   11.7541   -7.1666 C   0  0  0  0  0  0  0  0  0  0  0  0
   -4.4650   13.6954   -6.3241 C   0  0  0  0  0  0  0  0  0  0  0  0
   -1.6558   12.5461  -10.1051 H   0  0  0  0  0  0  0  0  0  0  0  0
   -2.1418   14.8314   -9.9056 H   0  0  0  0  0  0  0  0  0  0  0  0
   -1.3273   14.8503  -11.5065 H   0  0  0  0  0  0  0  0  0  0  0  0
   -3.9292   11.6343  -11.3361 H   0  0  0  0  0  0  0  0  0  0  0  0
   -4.0052   12.5329   -9.7825 H   0  0  0  0  0  0  0  0  0  0  0  0
   -1.6986   11.5246  -12.1863 H   0  0  0  0  0  0  0  0  0  0  0  0
   -3.9654   15.7526  -11.0614 H   0  0  0  0  0  0  0  0  0  0  0  0
   -3.3451   15.2065  -12.6563 H   0  0  0  0  0  0  0  0  0  0  0  0
   -5.4494   11.7544  -12.1998 H   0  0  0  0  0  0  0  0  0  0  0  0
   -8.1726   10.1006  -13.8930 H   0  0  0  0  0  0  0  0  0  0  0  0
   -5.4892   11.6119  -10.3610 H   0  0  0  0  0  0  0  0  0  0  0  0
   -6.9942   12.5634  -10.1232 H   0  0  0  0  0  0  0  0  0  0  0  0
   -8.0295    9.6121   -7.2551 H   0  0  0  0  0  0  0  0  0  0  0  0
   -4.8582    8.8181   -7.4825 H   0  0  0  0  0  0  0  0  0  0  0  0
   -4.8529    9.5421   -9.1264 H   0  0  0  0  0  0  0  0  0  0  0  0
   -2.4600   12.0040   -7.0537 H   0  0  0  0  0  0  0  0  0  0  0  0
   -2.6581    9.7501   -8.0474 H   0  0  0  0  0  0  0  0  0  0  0  0
   -6.7366   12.3128   -6.9153 H   0  0  0  0  0  0  0  0  0  0  0  0
   -5.4700   14.1039   -6.1424 H   0  0  0  0  0  0  0  0  0  0  0  0
   -3.9148   13.6392   -5.3732 H   0  0  0  0  0  0  0  0  0  0  0  0
   -3.9239   14.3505   -7.0227 H   0  0  0  0  0  0  0  0  0  0  0  0
  1  2  1  0  0  0  0
  1  3  1  0  0  0  0
  1  4  1  0  0  0  0
  2  5  1  0  0  0  0
  3  6  1  0  0  0  0
  5  6  1  0  0  0  0
  6 12  1  0  0  0  0
  7  8  1  0  0  0  0
  7 10  1  0  0  0  0
  7 12  1  0  0  0  0
  8  9  1  0  0  0  0
  8 11  2  0  0  0  0
  9 15  2  0  0  0  0
 10 14  1  0  0  0  0
 12 13  2  0  0  0  0
 14 15  1  0  0  0  0
 14 18  2  0  0  0  0
 15 16  1  0  0  0  0
 16 17  2  0  0  0  0
 17 18  1  0  0  0  0
 18 19  1  0  0  0  0
 19 20  2  0  0  0  0
 20 21  1  0  0  0  0
 20 25  1  0  0  0  0
 21 24  1  0  0  0  0
 22 23  1  0  0  0  0
 22 24  2  0  0  0  0
 23 25  2  0  0  0  0
 23 26  1  0  0  0  0
  1 27  1  0  0  0  0
  2 28  1  0  0  0  0
  2 29  1  0  0  0  0
  3 30  1  0  0  0  0
  3 31  1  0  0  0  0
  4 32  1  0  0  0  0
  5 33  1  0  0  0  0
  5 34  1  0  0  0  0
  7 35  1  0  0  0  0
  9 36  1  0  0  0  0
 10 37  1  0  0  0  0
 10 38  1  0  0  0  0
 19 39  1  0  0  0  0
 21 40  1  0  0  0  0
 21 41  1  0  0  0  0
 22 42  1  0  0  0  0
 24 43  1  0  0  0  0
 25 44  1  0  0  0  0
 26 45  1  0  0  0  0
 26 46  1  0  0  0  0
 26 47  1  0  0  0  0
M  END
> <Name>
13

> <IC50[uM]>
0.006

$$$$
13
  -OEChem-05192314333D
 Structure written by MMmdl.
 47 50  0     1  0  0  0  0  0999 V2000
   -2.2088   12.9419  -10.9697 C   0  0  1  0  0  0  0  0  0  0  0  0
   -2.1904   14.4671  -10.9424 C   0  0  0  0  0  0  0  0  0  0  0  0
   -3.6992   12.5876  -10.8377 C   0  0  0  0  0  0  0  0  0  0  0  0
   -1.6826   12.4744  -12.1795 O   0  0  0  0  0  0  0  0  0  0  0  0
   -3.5107   14.9139  -11.6089 C   0  0  0  0  0  0  0  0  0  0  0  0
   -4.3443   13.7200  -11.5243 N   0  0  0  0  0  0  0  0  0  0  0  0
   -6.3525   12.3601  -12.0338 C   0  0  0  0  0  0  0  0  0  0  0  0
   -6.9727   11.7556  -13.1375 C   0  0  0  0  0  0  0  0  0  0  0  0
   -7.7097   10.5633  -13.0339 C   0  0  0  0  0  0  0  0  0  0  0  0
   -6.5001   11.8056  -10.7491 C   0  0  0  0  0  0  0  0  0  0  0  0
   -6.8506   12.3073  -14.3824 O   0  0  0  0  0  0  0  0  0  0  0  0
   -5.5377   13.6382  -12.2001 C   0  0  0  0  0  0  0  0  0  0  0  0
   -5.9500   14.5444  -12.9177 O   0  0  0  0  0  0  0  0  0  0  0  0
   -7.2308   10.6159  -10.6131 C   0  0  0  0  0  0  0  0  0  0  0  0
   -7.8083   10.0113  -11.7524 C   0  0  0  0  0  0  0  0  0  0  0  0
   -8.4200    8.8675  -11.2880 N   0  0  0  0  0  0  0  0  0  0  0  0
   -8.2847    8.7400   -9.9757 N   0  0  0  0  0  0  0  0  0  0  0  0
   -7.6047    9.7473   -9.5145 C   0  0  0  0  0  0  0  0  0  0  0  0
   -7.3264    9.8951   -8.0245 C   0  0  0  0  0  0  0  0  0  0  0  0
   -5.9604   10.4805   -7.7353 C   0  0  0  0  0  0  0  0  0  0  0  0
   -4.8075    9.7596   -8.0491 C   0  0  0  0  0  0  0  0  0  0  0  0
   -3.4358   11.5809   -7.2415 C   0  0  0  0  0  0  0  0  0  0  0  0
   -4.5835   12.3061   -6.9225 C   0  0  0  0  0  0  0  0  0  0  0  0
   -3.5481   10.3107   -7.8024 C   0  0  0  0  0  0  0  0  0  0  0  0
   -5.8471   11.7541   -7.1666 C   0  0  0  0  0  0  0  0  0  0  0  0
   -4.4650   13.6954   -6.3241 C   0  0  0  0  0  0  0  0  0  0  0  0
   -1.6558   12.5461  -10.1051 H   0  0  0  0  0  0  0  0  0  0  0  0
   -2.1418   14.8314   -9.9056 H   0  0  0  0  0  0  0  0  0  0  0  0
   -1.3273   14.8503  -11.5065 H   0  0  0  0  0  0  0  0  0  0  0  0
   -3.9292   11.6343  -11.3361 H   0  0  0  0  0  0  0  0  0  0  0  0
   -4.0052   12.5329   -9.7825 H   0  0  0  0  0  0  0  0  0  0  0  0
   -1.6986   11.5246  -12.1863 H   0  0  0  0  0  0  0  0  0  0  0  0
   -3.9654   15.7526  -11.0614 H   0  0  0  0  0  0  0  0  0  0  0  0
   -3.3451   15.2065  -12.6563 H   0  0  0  0  0  0  0  0  0  0  0  0
   -5.4494   11.7544  -12.1998 H   0  0  0  0  0  0  0  0  0  0  0  0
   -8.1726   10.1006  -13.8930 H   0  0  0  0  0  0  0  0  0  0  0  0
   -5.4892   11.6119  -10.3610 H   0  0  0  0  0  0  0  0  0  0  0  0
   -6.9942   12.5634  -10.1232 H   0  0  0  0  0  0  0  0  0  0  0  0
   -8.0295    9.6121   -7.2551 H   0  0  0  0  0  0  0  0  0  0  0  0
   -4.8892    8.7741   -8.4833 H   0  0  0  0  0  0  0  0  0  0  0  0
   -2.8612   12.1924   -7.9527 H   0  0  0  0  0  0  0  0  0  0  0  0
   -2.8628   11.4670   -6.3094 H   0  0  0  0  0  0  0  0  0  0  0  0
   -2.6581    9.7501   -8.0474 H   0  0  0  0  0  0  0  0  0  0  0  0
   -6.7366   12.3128   -6.9153 H   0  0  0  0  0  0  0  0  0  0  0  0
   -5.4700   14.1039   -6.1424 H   0  0  0  0  0  0  0  0  0  0  0  0
   -3.9148   13.6392   -5.3732 H   0  0  0  0  0  0  0  0  0  0  0  0
   -3.9239   14.3505   -7.0227 H   0  0  0  0  0  0  0  0  0  0  0  0
  1  2  1  0  0  0  0
  1  3  1  0  0  0  0
  1  4  1  0  0  0  0
  2  5  1  0  0  0  0
  3  6  1  0  0  0  0
  5  6  1  0  0  0  0
  6 12  1  0  0  0  0
  7  8  1  0  0  0  0
  7 10  1  0  0  0  0
  7 12  1  0  0  0  0
  8  9  1  0  0  0  0
  8 11  2  0  0  0  0
  9 15  2  0  0  0  0
 10 14  1  0  0  0  0
 12 13  2  0  0  0  0
 14 15  1  0  0  0  0
 14 18  2  0  0  0  0
 15 16  1  0  0  0  0
 16 17  2  0  0  0  0
 17 18  1  0  0  0  0
 18 19  1  0  0  0  0
 19 20  2  0  0  0  0
 20 21  1  0  0  0  0
 20 25  1  0  0  0  0
 21 24  2  0  0  0  0
 22 23  1  0  0  0  0
 22 24  1  0  0  0  0
 23 25  2  0  0  0  0
 23 26  1  0  0  0  0
  1 27  1  0  0  0  0
  2 28  1  0  0  0  0
  2 29  1  0  0  0  0
  3 30  1  0  0  0  0
  3 31  1  0  0  0  0
  4 32  1  0  0  0  0
  5 33  1  0  0  0  0
  5 34  1  0  0  0  0
  7 35  1  0  0  0  0
  9 36  1  0  0  0  0
 10 37  1  0  0  0  0
 10 38  1  0  0  0  0
 19 39  1  0  0  0  0
 21 40  1  0  0  0  0
 22 41  1  0  0  0  0
 22 42  1  0  0  0  0
 24 43  1  0  0  0  0
 25 44  1  0  0  0  0
 26 45  1  0  0  0  0
 26 46  1  0  0  0  0
 26 47  1  0  0  0  0
M  END
> <Name>
13

> <IC50[uM]>
0.006

$$$$
13
  -OEChem-05192314333D
 Structure written by MMmdl.
 47 50  0     1  0  0  0  0  0999 V2000
   -2.2088   12.9419  -10.9697 C   0  0  1  0  0  0  0  0  0  0  0  0
   -2.1904   14.4671  -10.9424 C   0  0  0  0  0  0  0  0  0  0  0  0
   -3.6992   12.5876  -10.8377 C   0  0  0  0  0  0  0  0  0  0  0  0
   -1.6826   12.4744  -12.1795 O   0  0  0  0  0  0  0  0  0  0  0  0
   -3.5107   14.9139  -11.6089 C   0  0  0  0  0  0  0  0  0  0  0  0
   -4.3443   13.7200  -11.5243 N   0  0  0  0  0  0  0  0  0  0  0  0
   -6.3525   12.3601  -12.0338 C   0  0  0  0  0  0  0  0  0  0  0  0
   -6.9727   11.7556  -13.1375 C   0  0  0  0  0  0  0  0  0  0  0  0
   -7.7097   10.5633  -13.0339 C   0  0  0  0  0  0  0  0  0  0  0  0
   -6.5001   11.8056  -10.7491 C   0  0  0  0  0  0  0  0  0  0  0  0
   -6.8506   12.3073  -14.3824 O   0  0  0  0  0  0  0  0  0  0  0  0
   -5.5377   13.6382  -12.2001 C   0  0  0  0  0  0  0  0  0  0  0  0
   -5.9500   14.5444  -12.9177 O   0  0  0  0  0  0  0  0  0  0  0  0
   -7.2308   10.6159  -10.6131 C   0  0  0  0  0  0  0  0  0  0  0  0
   -7.8083   10.0113  -11.7524 C   0  0  0  0  0  0  0  0  0  0  0  0
   -8.4200    8.8675  -11.2880 N   0  0  0  0  0  0  0  0  0  0  0  0
   -8.2847    8.7400   -9.9757 N   0  0  0  0  0  0  0  0  0  0  0  0
   -7.6047    9.7473   -9.5145 C   0  0  0  0  0  0  0  0  0  0  0  0
   -7.3264    9.8951   -8.0245 C   0  0  0  0  0  0  0  0  0  0  0  0
   -5.9604   10.4805   -7.7353 C   0  0  0  0  0  0  0  0  0  0  0  0
   -4.8075    9.7596   -8.0491 C   0  0  0  0  0  0  0  0  0  0  0  0
   -3.4358   11.5809   -7.2415 C   0  0  0  0  0  0  0  0  0  0  0  0
   -4.5835   12.3061   -6.9225 C   0  0  0  0  0  0  0  0  0  0  0  0
   -3.5481   10.3107   -7.8024 C   0  0  0  0  0  0  0  0  0  0  0  0
   -5.8471   11.7541   -7.1666 C   0  0  0  0  0  0  0  0  0  0  0  0
   -4.4650   13.6954   -6.3241 C   0  0  0  0  0  0  0  0  0  0  0  0
   -1.6558   12.5461  -10.1051 H   0  0  0  0  0  0  0  0  0  0  0  0
   -2.1418   14.8314   -9.9056 H   0  0  0  0  0  0  0  0  0  0  0  0
   -1.3273   14.8503  -11.5065 H   0  0  0  0  0  0  0  0  0  0  0  0
   -3.9292   11.6343  -11.3361 H   0  0  0  0  0  0  0  0  0  0  0  0
   -4.0052   12.5329   -9.7825 H   0  0  0  0  0  0  0  0  0  0  0  0
   -1.6986   11.5246  -12.1863 H   0  0  0  0  0  0  0  0  0  0  0  0
   -3.9654   15.7526  -11.0614 H   0  0  0  0  0  0  0  0  0  0  0  0
   -3.3451   15.2065  -12.6563 H   0  0  0  0  0  0  0  0  0  0  0  0
   -8.1726   10.1006  -13.8930 H   0  0  0  0  0  0  0  0  0  0  0  0
   -6.0607   12.2852   -9.8870 H   0  0  0  0  0  0  0  0  0  0  0  0
   -8.0906   10.5553   -7.5885 H   0  0  0  0  0  0  0  0  0  0  0  0
   -7.3891    8.9020   -7.5556 H   0  0  0  0  0  0  0  0  0  0  0  0
   -4.8582    8.8181   -7.4825 H   0  0  0  0  0  0  0  0  0  0  0  0
   -4.8529    9.5421   -9.1264 H   0  0  0  0  0  0  0  0  0  0  0  0
   -2.4600   12.0040   -7.0537 H   0  0  0  0  0  0  0  0  0  0  0  0
   -4.5836   11.8682   -5.9134 H   0  0  0  0  0  0  0  0  0  0  0  0
   -2.6581    9.7501   -8.0474 H   0  0  0  0  0  0  0  0  0  0  0  0
   -6.7366   12.3128   -6.9153 H   0  0  0  0  0  0  0  0  0  0  0  0
   -5.4700   14.1039   -6.1424 H   0  0  0  0  0  0  0  0  0  0  0  0
   -3.9148   13.6392   -5.3732 H   0  0  0  0  0  0  0  0  0  0  0  0
   -3.9239   14.3505   -7.0227 H   0  0  0  0  0  0  0  0  0  0  0  0
  1  2  1  0  0  0  0
  1  3  1  0  0  0  0
  1  4  1  0  0  0  0
  2  5  1  0  0  0  0
  3  6  1  0  0  0  0
  5  6  1  0  0  0  0
  6 12  1  0  0  0  0
  7  8  1  0  0  0  0
  7 10  2  0  0  0  0
  7 12  1  0  0  0  0
  8  9  1  0  0  0  0
  8 11  2  0  0  0  0
  9 15  2  0  0  0  0
 10 14  1  0  0  0  0
 12 13  2  0  0  0  0
 14 15  1  0  0  0  0
 14 18  2  0  0  0  0
 15 16  1  0  0  0  0
 16 17  2  0  0  0  0
 17 18  1  0  0  0  0
 18 19  1  0  0  0  0
 19 20  1  0  0  0  0
 20 21  1  0  0  0  0
 20 25  2  0  0  0  0
 21 24  1  0  0  0  0
 22 23  1  0  0  0  0
 22 24  2  0  0  0  0
 23 25  1  0  0  0  0
 23 26  1  0  0  0  0
  1 27  1  0  0  0  0
  2 28  1  0  0  0  0
  2 29  1  0  0  0  0
  3 30  1  0  0  0  0
  3 31  1  0  0  0  0
  4 32  1  0  0  0  0
  5 33  1  0  0  0  0
  5 34  1  0  0  0  0
  9 35  1  0  0  0  0
 10 36  1  0  0  0  0
 19 37  1  0  0  0  0
 19 38  1  0  0  0  0
 21 39  1  0  0  0  0
 21 40  1  0  0  0  0
 22 41  1  0  0  0  0
 23 42  1  0  0  0  0
 24 43  1  0  0  0  0
 25 44  1  0  0  0  0
 26 45  1  0  0  0  0
 26 46  1  0  0  0  0
 26 47  1  0  0  0  0
M  END
> <Name>
13

> <IC50[uM]>
0.006

$$$$
13
  -OEChem-05192314333D
 Structure written by MMmdl.
 47 50  0     1  0  0  0  0  0999 V2000
   -2.2088   12.9419  -10.9697 C   0  0  1  0  0  0  0  0  0  0  0  0
   -2.1904   14.4671  -10.9424 C   0  0  0  0  0  0  0  0  0  0  0  0
   -3.6992   12.5876  -10.8377 C   0  0  0  0  0  0  0  0  0  0  0  0
   -1.6826   12.4744  -12.1795 O   0  0  0  0  0  0  0  0  0  0  0  0
   -3.5107   14.9139  -11.6089 C   0  0  0  0  0  0  0  0  0  0  0  0
   -4.3443   13.7200  -11.5243 N   0  0  0  0  0  0  0  0  0  0  0  0
   -6.3525   12.3601  -12.0338 C   0  0  0  0  0  0  0  0  0  0  0  0
   -6.9727   11.7556  -13.1375 C   0  0  0  0  0  0  0  0  0  0  0  0
   -7.7097   10.5633  -13.0339 C   0  0  0  0  0  0  0  0  0  0  0  0
   -6.5001   11.8056  -10.7491 C   0  0  0  0  0  0  0  0  0  0  0  0
   -6.8506   12.3073  -14.3824 O   0  0  0  0  0  0  0  0  0  0  0  0
   -5.5377   13.6382  -12.2001 C   0  0  0  0  0  0  0  0  0  0  0  0
   -5.9500   14.5444  -12.9177 O   0  0  0  0  0  0  0  0  0  0  0  0
   -7.2308   10.6159  -10.6131 C   0  0  0  0  0  0  0  0  0  0  0  0
   -7.8083   10.0113  -11.7524 C   0  0  0  0  0  0  0  0  0  0  0  0
   -8.4200    8.8675  -11.2880 N   0  0  0  0  0  0  0  0  0  0  0  0
   -8.2847    8.7400   -9.9757 N   0  0  0  0  0  0  0  0  0  0  0  0
   -7.6047    9.7473   -9.5145 C   0  0  0  0  0  0  0  0  0  0  0  0
   -7.3264    9.8951   -8.0245 C   0  0  0  0  0  0  0  0  0  0  0  0
   -5.9604   10.4805   -7.7353 C   0  0  0  0  0  0  0  0  0  0  0  0
   -4.8075    9.7596   -8.0491 C   0  0  0  0  0  0  0  0  0  0  0  0
   -3.4358   11.5809   -7.2415 C   0  0  0  0  0  0  0  0  0  0  0  0
   -4.5835   12.3061   -6.9225 C   0  0  0  0  0  0  0  0  0  0  0  0
   -3.5481   10.3107   -7.8024 C   0  0  0  0  0  0  0  0  0  0  0  0
   -5.8471   11.7541   -7.1666 C   0  0  0  0  0  0  0  0  0  0  0  0
   -4.4650   13.6954   -6.3241 C   0  0  0  0  0  0  0  0  0  0  0  0
   -1.6558   12.5461  -10.1051 H   0  0  0  0  0  0  0  0  0  0  0  0
   -2.1418   14.8314   -9.9056 H   0  0  0  0  0  0  0  0  0  0  0  0
   -1.3273   14.8503  -11.5065 H   0  0  0  0  0  0  0  0  0  0  0  0
   -3.9292   11.6343  -11.3361 H   0  0  0  0  0  0  0  0  0  0  0  0
   -4.0052   12.5329   -9.7825 H   0  0  0  0  0  0  0  0  0  0  0  0
   -1.6986   11.5246  -12.1863 H   0  0  0  0  0  0  0  0  0  0  0  0
   -3.9654   15.7526  -11.0614 H   0  0  0  0  0  0  0  0  0  0  0  0
   -3.3451   15.2065  -12.6563 H   0  0  0  0  0  0  0  0  0  0  0  0
   -8.1726   10.1006  -13.8930 H   0  0  0  0  0  0  0  0  0  0  0  0
   -6.0607   12.2852   -9.8870 H   0  0  0  0  0  0  0  0  0  0  0  0
   -8.0906   10.5553   -7.5885 H   0  0  0  0  0  0  0  0  0  0  0  0
   -7.3891    8.9020   -7.5556 H   0  0  0  0  0  0  0  0  0  0  0  0
   -5.9749   10.0291   -6.7323 H   0  0  0  0  0  0  0  0  0  0  0  0
   -4.8582    8.8181   -7.4825 H   0  0  0  0  0  0  0  0  0  0  0  0
   -4.8529    9.5421   -9.1264 H   0  0  0  0  0  0  0  0  0  0  0  0
   -2.4600   12.0040   -7.0537 H   0  0  0  0  0  0  0  0  0  0  0  0
   -2.6581    9.7501   -8.0474 H   0  0  0  0  0  0  0  0  0  0  0  0
   -6.7366   12.3128   -6.9153 H   0  0  0  0  0  0  0  0  0  0  0  0
   -5.4700   14.1039   -6.1424 H   0  0  0  0  0  0  0  0  0  0  0  0
   -3.9148   13.6392   -5.3732 H   0  0  0  0  0  0  0  0  0  0  0  0
   -3.9239   14.3505   -7.0227 H   0  0  0  0  0  0  0  0  0  0  0  0
  1  2  1  0  0  0  0
  1  3  1  0  0  0  0
  1  4  1  0  0  0  0
  2  5  1  0  0  0  0
  3  6  1  0  0  0  0
  5  6  1  0  0  0  0
  6 12  1  0  0  0  0
  7  8  1  0  0  0  0
  7 10  2  0  0  0  0
  7 12  1  0  0  0  0
  8  9  1  0  0  0  0
  8 11  2  0  0  0  0
  9 15  2  0  0  0  0
 10 14  1  0  0  0  0
 12 13  2  0  0  0  0
 14 15  1  0  0  0  0
 14 18  2  0  0  0  0
 15 16  1  0  0  0  0
 16 17  2  0  0  0  0
 17 18  1  0  0  0  0
 18 19  1  0  0  0  0
 19 20  1  0  0  0  0
 20 21  1  0  0  0  0
 20 25  1  0  0  0  0
 21 24  1  0  0  0  0
 22 23  1  0  0  0  0
 22 24  2  0  0  0  0
 23 25  2  0  0  0  0
 23 26  1  0  0  0  0
  1 27  1  0  0  0  0
  2 28  1  0  0  0  0
  2 29  1  0  0  0  0
  3 30  1  0  0  0  0
  3 31  1  0  0  0  0
  4 32  1  0  0  0  0
  5 33  1  0  0  0  0
  5 34  1  0  0  0  0
  9 35  1  0  0  0  0
 10 36  1  0  0  0  0
 19 37  1  0  0  0  0
 19 38  1  0  0  0  0
 20 39  1  0  0  0  0
 21 40  1  0  0  0  0
 21 41  1  0  0  0  0
 22 42  1  0  0  0  0
 24 43  1  0  0  0  0
 25 44  1  0  0  0  0
 26 45  1  0  0  0  0
 26 46  1  0  0  0  0
 26 47  1  0  0  0  0
M  END
> <Name>
13

> <IC50[uM]>
0.006

$$$$
13
  -OEChem-05192314333D
 Structure written by MMmdl.
 47 50  0     1  0  0  0  0  0999 V2000
   -2.2088   12.9419  -10.9697 C   0  0  1  0  0  0  0  0  0  0  0  0
   -2.1904   14.4671  -10.9424 C   0  0  0  0  0  0  0  0  0  0  0  0
   -3.6992   12.5876  -10.8377 C   0  0  0  0  0  0  0  0  0  0  0  0
   -1.6826   12.4744  -12.1795 O   0  0  0  0  0  0  0  0  0  0  0  0
   -3.5107   14.9139  -11.6089 C   0  0  0  0  0  0  0  0  0  0  0  0
   -4.3443   13.7200  -11.5243 N   0  0  0  0  0  0  0  0  0  0  0  0
   -6.3525   12.3601  -12.0338 C   0  0  0  0  0  0  0  0  0  0  0  0
   -6.9727   11.7556  -13.1375 C   0  0  0  0  0  0  0  0  0  0  0  0
   -7.7097   10.5633  -13.0339 C   0  0  0  0  0  0  0  0  0  0  0  0
   -6.5001   11.8056  -10.7491 C   0  0  0  0  0  0  0  0  0  0  0  0
   -6.8506   12.3073  -14.3824 O   0  0  0  0  0  0  0  0  0  0  0  0
   -5.5377   13.6382  -12.2001 C   0  0  0  0  0  0  0  0  0  0  0  0
   -5.9500   14.5444  -12.9177 O   0  0  0  0  0  0  0  0  0  0  0  0
   -7.2308   10.6159  -10.6131 C   0  0  0  0  0  0  0  0  0  0  0  0
   -7.8083   10.0113  -11.7524 C   0  0  0  0  0  0  0  0  0  0  0  0
   -8.4200    8.8675  -11.2880 N   0  0  0  0  0  0  0  0  0  0  0  0
   -8.2847    8.7400   -9.9757 N   0  0  0  0  0  0  0  0  0  0  0  0
   -7.6047    9.7473   -9.5145 C   0  0  0  0  0  0  0  0  0  0  0  0
   -7.3264    9.8951   -8.0245 C   0  0  0  0  0  0  0  0  0  0  0  0
   -5.9604   10.4805   -7.7353 C   0  0  0  0  0  0  0  0  0  0  0  0
   -4.8075    9.7596   -8.0491 C   0  0  0  0  0  0  0  0  0  0  0  0
   -3.4358   11.5809   -7.2415 C   0  0  0  0  0  0  0  0  0  0  0  0
   -4.5835   12.3061   -6.9225 C   0  0  0  0  0  0  0  0  0  0  0  0
   -3.5481   10.3107   -7.8024 C   0  0  0  0  0  0  0  0  0  0  0  0
   -5.8471   11.7541   -7.1666 C   0  0  0  0  0  0  0  0  0  0  0  0
   -4.4650   13.6954   -6.3241 C   0  0  0  0  0  0  0  0  0  0  0  0
   -1.6558   12.5461  -10.1051 H   0  0  0  0  0  0  0  0  0  0  0  0
   -2.1418   14.8314   -9.9056 H   0  0  0  0  0  0  0  0  0  0  0  0
   -1.3273   14.8503  -11.5065 H   0  0  0  0  0  0  0  0  0  0  0  0
   -3.9292   11.6343  -11.3361 H   0  0  0  0  0  0  0  0  0  0  0  0
   -4.0052   12.5329   -9.7825 H   0  0  0  0  0  0  0  0  0  0  0  0
   -1.6986   11.5246  -12.1863 H   0  0  0  0  0  0  0  0  0  0  0  0
   -3.9654   15.7526  -11.0614 H   0  0  0  0  0  0  0  0  0  0  0  0
   -3.3451   15.2065  -12.6563 H   0  0  0  0  0  0  0  0  0  0  0  0
   -8.1726   10.1006  -13.8930 H   0  0  0  0  0  0  0  0  0  0  0  0
   -6.0607   12.2852   -9.8870 H   0  0  0  0  0  0  0  0  0  0  0  0
   -8.0906   10.5553   -7.5885 H   0  0  0  0  0  0  0  0  0  0  0  0
   -7.3891    8.9020   -7.5556 H   0  0  0  0  0  0  0  0  0  0  0  0
   -4.8582    8.8181   -7.4825 H   0  0  0  0  0  0  0  0  0  0  0  0
   -4.8529    9.5421   -9.1264 H   0  0  0  0  0  0  0  0  0  0  0  0
   -2.4600   12.0040   -7.0537 H   0  0  0  0  0  0  0  0  0  0  0  0
   -3.0270    9.6184   -7.1248 H   0  0  0  0  0  0  0  0  0  0  0  0
   -3.0225   10.3437   -8.7681 H   0  0  0  0  0  0  0  0  0  0  0  0
   -6.7366   12.3128   -6.9153 H   0  0  0  0  0  0  0  0  0  0  0  0
   -5.4700   14.1039   -6.1424 H   0  0  0  0  0  0  0  0  0  0  0  0
   -3.9148   13.6392   -5.3732 H   0  0  0  0  0  0  0  0  0  0  0  0
   -3.9239   14.3505   -7.0227 H   0  0  0  0  0  0  0  0  0  0  0  0
  1  2  1  0  0  0  0
  1  3  1  0  0  0  0
  1  4  1  0  0  0  0
  2  5  1  0  0  0  0
  3  6  1  0  0  0  0
  5  6  1  0  0  0  0
  6 12  1  0  0  0  0
  7  8  1  0  0  0  0
  7 10  2  0  0  0  0
  7 12  1  0  0  0  0
  8  9  1  0  0  0  0
  8 11  2  0  0  0  0
  9 15  2  0  0  0  0
 10 14  1  0  0  0  0
 12 13  2  0  0  0  0
 14 15  1  0  0  0  0
 14 18  2  0  0  0  0
 15 16  1  0  0  0  0
 16 17  2  0  0  0  0
 17 18  1  0  0  0  0
 18 19  1  0  0  0  0
 19 20  1  0  0  0  0
 20 21  1  0  0  0  0
 20 25  2  0  0  0  0
 21 24  1  0  0  0  0
 22 23  2  0  0  0  0
 22 24  1  0  0  0  0
 23 25  1  0  0  0  0
 23 26  1  0  0  0  0
  1 27  1  0  0  0  0
  2 28  1  0  0  0  0
  2 29  1  0  0  0  0
  3 30  1  0  0  0  0
  3 31  1  0  0  0  0
  4 32  1  0  0  0  0
  5 33  1  0  0  0  0
  5 34  1  0  0  0  0
  9 35  1  0  0  0  0
 10 36  1  0  0  0  0
 19 37  1  0  0  0  0
 19 38  1  0  0  0  0
 21 39  1  0  0  0  0
 21 40  1  0  0  0  0
 22 41  1  0  0  0  0
 24 42  1  0  0  0  0
 24 43  1  0  0  0  0
 25 44  1  0  0  0  0
 26 45  1  0  0  0  0
 26 46  1  0  0  0  0
 26 47  1  0  0  0  0
M  END
> <Name>
13

> <IC50[uM]>
0.006

$$$$
13
  -OEChem-05192314333D
 Structure written by MMmdl.
 47 50  0     1  0  0  0  0  0999 V2000
   -2.2088   12.9419  -10.9697 C   0  0  1  0  0  0  0  0  0  0  0  0
   -2.1904   14.4671  -10.9424 C   0  0  0  0  0  0  0  0  0  0  0  0
   -3.6992   12.5876  -10.8377 C   0  0  0  0  0  0  0  0  0  0  0  0
   -1.6826   12.4744  -12.1795 O   0  0  0  0  0  0  0  0  0  0  0  0
   -3.5107   14.9139  -11.6089 C   0  0  0  0  0  0  0  0  0  0  0  0
   -4.3443   13.7200  -11.5243 N   0  0  0  0  0  0  0  0  0  0  0  0
   -6.3525   12.3601  -12.0338 C   0  0  0  0  0  0  0  0  0  0  0  0
   -6.9727   11.7556  -13.1375 C   0  0  0  0  0  0  0  0  0  0  0  0
   -7.7097   10.5633  -13.0339 C   0  0  0  0  0  0  0  0  0  0  0  0
   -6.5001   11.8056  -10.7491 C   0  0  0  0  0  0  0  0  0  0  0  0
   -6.8506   12.3073  -14.3824 O   0  0  0  0  0  0  0  0  0  0  0  0
   -5.5377   13.6382  -12.2001 C   0  0  0  0  0  0  0  0  0  0  0  0
   -5.9500   14.5444  -12.9177 O   0  0  0  0  0  0  0  0  0  0  0  0
   -7.2308   10.6159  -10.6131 C   0  0  0  0  0  0  0  0  0  0  0  0
   -7.8083   10.0113  -11.7524 C   0  0  0  0  0  0  0  0  0  0  0  0
   -8.4200    8.8675  -11.2880 N   0  0  0  0  0  0  0  0  0  0  0  0
   -8.2847    8.7400   -9.9757 N   0  0  0  0  0  0  0  0  0  0  0  0
   -7.6047    9.7473   -9.5145 C   0  0  0  0  0  0  0  0  0  0  0  0
   -7.3264    9.8951   -8.0245 C   0  0  0  0  0  0  0  0  0  0  0  0
   -5.9604   10.4805   -7.7353 C   0  0  0  0  0  0  0  0  0  0  0  0
   -4.8075    9.7596   -8.0491 C   0  0  0  0  0  0  0  0  0  0  0  0
   -3.4358   11.5809   -7.2415 C   0  0  0  0  0  0  0  0  0  0  0  0
   -4.5835   12.3061   -6.9225 C   0  0  0  0  0  0  0  0  0  0  0  0
   -3.5481   10.3107   -7.8024 C   0  0  0  0  0  0  0  0  0  0  0  0
   -5.8471   11.7541   -7.1666 C   0  0  0  0  0  0  0  0  0  0  0  0
   -4.4650   13.6954   -6.3241 C   0  0  0  0  0  0  0  0  0  0  0  0
   -1.6558   12.5461  -10.1051 H   0  0  0  0  0  0  0  0  0  0  0  0
   -2.1418   14.8314   -9.9056 H   0  0  0  0  0  0  0  0  0  0  0  0
   -1.3273   14.8503  -11.5065 H   0  0  0  0  0  0  0  0  0  0  0  0
   -3.9292   11.6343  -11.3361 H   0  0  0  0  0  0  0  0  0  0  0  0
   -4.0052   12.5329   -9.7825 H   0  0  0  0  0  0  0  0  0  0  0  0
   -1.6986   11.5246  -12.1863 H   0  0  0  0  0  0  0  0  0  0  0  0
   -3.9654   15.7526  -11.0614 H   0  0  0  0  0  0  0  0  0  0  0  0
   -3.3451   15.2065  -12.6563 H   0  0  0  0  0  0  0  0  0  0  0  0
   -8.1726   10.1006  -13.8930 H   0  0  0  0  0  0  0  0  0  0  0  0
   -6.0607   12.2852   -9.8870 H   0  0  0  0  0  0  0  0  0  0  0  0
   -8.0906   10.5553   -7.5885 H   0  0  0  0  0  0  0  0  0  0  0  0
   -7.3891    8.9020   -7.5556 H   0  0  0  0  0  0  0  0  0  0  0  0
   -4.8892    8.7741   -8.4833 H   0  0  0  0  0  0  0  0  0  0  0  0
   -2.8612   12.1924   -7.9527 H   0  0  0  0  0  0  0  0  0  0  0  0
   -2.8628   11.4670   -6.3094 H   0  0  0  0  0  0  0  0  0  0  0  0
   -4.5836   11.8682   -5.9134 H   0  0  0  0  0  0  0  0  0  0  0  0
   -2.6581    9.7501   -8.0474 H   0  0  0  0  0  0  0  0  0  0  0  0
   -6.7366   12.3128   -6.9153 H   0  0  0  0  0  0  0  0  0  0  0  0
   -5.4700   14.1039   -6.1424 H   0  0  0  0  0  0  0  0  0  0  0  0
   -3.9148   13.6392   -5.3732 H   0  0  0  0  0  0  0  0  0  0  0  0
   -3.9239   14.3505   -7.0227 H   0  0  0  0  0  0  0  0  0  0  0  0
  1  2  1  0  0  0  0
  1  3  1  0  0  0  0
  1  4  1  0  0  0  0
  2  5  1  0  0  0  0
  3  6  1  0  0  0  0
  5  6  1  0  0  0  0
  6 12  1  0  0  0  0
  7  8  1  0  0  0  0
  7 10  2  0  0  0  0
  7 12  1  0  0  0  0
  8  9  1  0  0  0  0
  8 11  2  0  0  0  0
  9 15  2  0  0  0  0
 10 14  1  0  0  0  0
 12 13  2  0  0  0  0
 14 15  1  0  0  0  0
 14 18  2  0  0  0  0
 15 16  1  0  0  0  0
 16 17  2  0  0  0  0
 17 18  1  0  0  0  0
 18 19  1  0  0  0  0
 19 20  1  0  0  0  0
 20 21  1  0  0  0  0
 20 25  2  0  0  0  0
 21 24  2  0  0  0  0
 22 23  1  0  0  0  0
 22 24  1  0  0  0  0
 23 25  1  0  0  0  0
 23 26  1  0  0  0  0
  1 27  1  0  0  0  0
  2 28  1  0  0  0  0
  2 29  1  0  0  0  0
  3 30  1  0  0  0  0
  3 31  1  0  0  0  0
  4 32  1  0  0  0  0
  5 33  1  0  0  0  0
  5 34  1  0  0  0  0
  9 35  1  0  0  0  0
 10 36  1  0  0  0  0
 19 37  1  0  0  0  0
 19 38  1  0  0  0  0
 21 39  1  0  0  0  0
 22 40  1  0  0  0  0
 22 41  1  0  0  0  0
 23 42  1  0  0  0  0
 24 43  1  0  0  0  0
 25 44  1  0  0  0  0
 26 45  1  0  0  0  0
 26 46  1  0  0  0  0
 26 47  1  0  0  0  0
M  END
> <Name>
13

> <IC50[uM]>
0.006

$$$$
13
  -OEChem-05192314333D
 Structure written by MMmdl.
 47 50  0     1  0  0  0  0  0999 V2000
   -2.2088   12.9419  -10.9697 C   0  0  1  0  0  0  0  0  0  0  0  0
   -2.1904   14.4671  -10.9424 C   0  0  0  0  0  0  0  0  0  0  0  0
   -3.6992   12.5876  -10.8377 C   0  0  0  0  0  0  0  0  0  0  0  0
   -1.6826   12.4744  -12.1795 O   0  0  0  0  0  0  0  0  0  0  0  0
   -3.5107   14.9139  -11.6089 C   0  0  0  0  0  0  0  0  0  0  0  0
   -4.3443   13.7200  -11.5243 N   0  0  0  0  0  0  0  0  0  0  0  0
   -6.3525   12.3601  -12.0338 C   0  0  0  0  0  0  0  0  0  0  0  0
   -6.9727   11.7556  -13.1375 C   0  0  0  0  0  0  0  0  0  0  0  0
   -7.7097   10.5633  -13.0339 C   0  0  0  0  0  0  0  0  0  0  0  0
   -6.5001   11.8056  -10.7491 C   0  0  0  0  0  0  0  0  0  0  0  0
   -6.8506   12.3073  -14.3824 O   0  0  0  0  0  0  0  0  0  0  0  0
   -5.5377   13.6382  -12.2001 C   0  0  0  0  0  0  0  0  0  0  0  0
   -5.9500   14.5444  -12.9177 O   0  0  0  0  0  0  0  0  0  0  0  0
   -7.2308   10.6159  -10.6131 C   0  0  0  0  0  0  0  0  0  0  0  0
   -7.8083   10.0113  -11.7524 C   0  0  0  0  0  0  0  0  0  0  0  0
   -8.4200    8.8675  -11.2880 N   0  0  0  0  0  0  0  0  0  0  0  0
   -8.2847    8.7400   -9.9757 N   0  0  0  0  0  0  0  0  0  0  0  0
   -7.6047    9.7473   -9.5145 C   0  0  0  0  0  0  0  0  0  0  0  0
   -7.3264    9.8951   -8.0245 C   0  0  0  0  0  0  0  0  0  0  0  0
   -5.9604   10.4805   -7.7353 C   0  0  0  0  0  0  0  0  0  0  0  0
   -4.8075    9.7596   -8.0491 C   0  0  0  0  0  0  0  0  0  0  0  0
   -3.4358   11.5809   -7.2415 C   0  0  0  0  0  0  0  0  0  0  0  0
   -4.5835   12.3061   -6.9225 C   0  0  0  0  0  0  0  0  0  0  0  0
   -3.5481   10.3107   -7.8024 C   0  0  0  0  0  0  0  0  0  0  0  0
   -5.8471   11.7541   -7.1666 C   0  0  0  0  0  0  0  0  0  0  0  0
   -4.4650   13.6954   -6.3241 C   0  0  0  0  0  0  0  0  0  0  0  0
   -1.6558   12.5461  -10.1051 H   0  0  0  0  0  0  0  0  0  0  0  0
   -2.1418   14.8314   -9.9056 H   0  0  0  0  0  0  0  0  0  0  0  0
   -1.3273   14.8503  -11.5065 H   0  0  0  0  0  0  0  0  0  0  0  0
   -3.9292   11.6343  -11.3361 H   0  0  0  0  0  0  0  0  0  0  0  0
   -4.0052   12.5329   -9.7825 H   0  0  0  0  0  0  0  0  0  0  0  0
   -1.6986   11.5246  -12.1863 H   0  0  0  0  0  0  0  0  0  0  0  0
   -3.9654   15.7526  -11.0614 H   0  0  0  0  0  0  0  0  0  0  0  0
   -3.3451   15.2065  -12.6563 H   0  0  0  0  0  0  0  0  0  0  0  0
   -8.1726   10.1006  -13.8930 H   0  0  0  0  0  0  0  0  0  0  0  0
   -6.0607   12.2852   -9.8870 H   0  0  0  0  0  0  0  0  0  0  0  0
   -8.0906   10.5553   -7.5885 H   0  0  0  0  0  0  0  0  0  0  0  0
   -7.3891    8.9020   -7.5556 H   0  0  0  0  0  0  0  0  0  0  0  0
   -5.9749   10.0291   -6.7323 H   0  0  0  0  0  0  0  0  0  0  0  0
   -4.8892    8.7741   -8.4833 H   0  0  0  0  0  0  0  0  0  0  0  0
   -2.8612   12.1924   -7.9527 H   0  0  0  0  0  0  0  0  0  0  0  0
   -2.8628   11.4670   -6.3094 H   0  0  0  0  0  0  0  0  0  0  0  0
   -2.6581    9.7501   -8.0474 H   0  0  0  0  0  0  0  0  0  0  0  0
   -6.7366   12.3128   -6.9153 H   0  0  0  0  0  0  0  0  0  0  0  0
   -5.4700   14.1039   -6.1424 H   0  0  0  0  0  0  0  0  0  0  0  0
   -3.9148   13.6392   -5.3732 H   0  0  0  0  0  0  0  0  0  0  0  0
   -3.9239   14.3505   -7.0227 H   0  0  0  0  0  0  0  0  0  0  0  0
  1  2  1  0  0  0  0
  1  3  1  0  0  0  0
  1  4  1  0  0  0  0
  2  5  1  0  0  0  0
  3  6  1  0  0  0  0
  5  6  1  0  0  0  0
  6 12  1  0  0  0  0
  7  8  1  0  0  0  0
  7 10  2  0  0  0  0
  7 12  1  0  0  0  0
  8  9  1  0  0  0  0
  8 11  2  0  0  0  0
  9 15  2  0  0  0  0
 10 14  1  0  0  0  0
 12 13  2  0  0  0  0
 14 15  1  0  0  0  0
 14 18  2  0  0  0  0
 15 16  1  0  0  0  0
 16 17  2  0  0  0  0
 17 18  1  0  0  0  0
 18 19  1  0  0  0  0
 19 20  1  0  0  0  0
 20 21  1  0  0  0  0
 20 25  1  0  0  0  0
 21 24  2  0  0  0  0
 22 23  1  0  0  0  0
 22 24  1  0  0  0  0
 23 25  2  0  0  0  0
 23 26  1  0  0  0  0
  1 27  1  0  0  0  0
  2 28  1  0  0  0  0
  2 29  1  0  0  0  0
  3 30  1  0  0  0  0
  3 31  1  0  0  0  0
  4 32  1  0  0  0  0
  5 33  1  0  0  0  0
  5 34  1  0  0  0  0
  9 35  1  0  0  0  0
 10 36  1  0  0  0  0
 19 37  1  0  0  0  0
 19 38  1  0  0  0  0
 20 39  1  0  0  0  0
 21 40  1  0  0  0  0
 22 41  1  0  0  0  0
 22 42  1  0  0  0  0
 24 43  1  0  0  0  0
 25 44  1  0  0  0  0
 26 45  1  0  0  0  0
 26 46  1  0  0  0  0
 26 47  1  0  0  0  0
M  END
> <Name>
13

> <IC50[uM]>
0.006

$$$$
13
  -OEChem-05192314333D
 Structure written by MMmdl.
 47 50  0     1  0  0  0  0  0999 V2000
   -2.2088   12.9419  -10.9697 C   0  0  1  0  0  0  0  0  0  0  0  0
   -2.1904   14.4671  -10.9424 C   0  0  0  0  0  0  0  0  0  0  0  0
   -3.6992   12.5876  -10.8377 C   0  0  0  0  0  0  0  0  0  0  0  0
   -1.6826   12.4744  -12.1795 O   0  0  0  0  0  0  0  0  0  0  0  0
   -3.5107   14.9139  -11.6089 C   0  0  0  0  0  0  0  0  0  0  0  0
   -4.3443   13.7200  -11.5243 N   0  0  0  0  0  0  0  0  0  0  0  0
   -6.3525   12.3601  -12.0338 C   0  0  0  0  0  0  0  0  0  0  0  0
   -6.9727   11.7556  -13.1375 C   0  0  0  0  0  0  0  0  0  0  0  0
   -7.7097   10.5633  -13.0339 C   0  0  0  0  0  0  0  0  0  0  0  0
   -6.5001   11.8056  -10.7491 C   0  0  0  0  0  0  0  0  0  0  0  0
   -6.8506   12.3073  -14.3824 O   0  0  0  0  0  0  0  0  0  0  0  0
   -5.5377   13.6382  -12.2001 C   0  0  0  0  0  0  0  0  0  0  0  0
   -5.9500   14.5444  -12.9177 O   0  0  0  0  0  0  0  0  0  0  0  0
   -7.2308   10.6159  -10.6131 C   0  0  0  0  0  0  0  0  0  0  0  0
   -7.8083   10.0113  -11.7524 C   0  0  0  0  0  0  0  0  0  0  0  0
   -8.4200    8.8675  -11.2880 N   0  0  0  0  0  0  0  0  0  0  0  0
   -8.2847    8.7400   -9.9757 N   0  0  0  0  0  0  0  0  0  0  0  0
   -7.6047    9.7473   -9.5145 C   0  0  0  0  0  0  0  0  0  0  0  0
   -7.3264    9.8951   -8.0245 C   0  0  0  0  0  0  0  0  0  0  0  0
   -5.9604   10.4805   -7.7353 C   0  0  0  0  0  0  0  0  0  0  0  0
   -4.8075    9.7596   -8.0491 C   0  0  0  0  0  0  0  0  0  0  0  0
   -3.4358   11.5809   -7.2415 C   0  0  0  0  0  0  0  0  0  0  0  0
   -4.5835   12.3061   -6.9225 C   0  0  0  0  0  0  0  0  0  0  0  0
   -3.5481   10.3107   -7.8024 C   0  0  0  0  0  0  0  0  0  0  0  0
   -5.8471   11.7541   -7.1666 C   0  0  0  0  0  0  0  0  0  0  0  0
   -4.4650   13.6954   -6.3241 C   0  0  0  0  0  0  0  0  0  0  0  0
   -1.6558   12.5461  -10.1051 H   0  0  0  0  0  0  0  0  0  0  0  0
   -2.1418   14.8314   -9.9056 H   0  0  0  0  0  0  0  0  0  0  0  0
   -1.3273   14.8503  -11.5065 H   0  0  0  0  0  0  0  0  0  0  0  0
   -3.9292   11.6343  -11.3361 H   0  0  0  0  0  0  0  0  0  0  0  0
   -4.0052   12.5329   -9.7825 H   0  0  0  0  0  0  0  0  0  0  0  0
   -1.6986   11.5246  -12.1863 H   0  0  0  0  0  0  0  0  0  0  0  0
   -3.9654   15.7526  -11.0614 H   0  0  0  0  0  0  0  0  0  0  0  0
   -3.3451   15.2065  -12.6563 H   0  0  0  0  0  0  0  0  0  0  0  0
   -8.1726   10.1006  -13.8930 H   0  0  0  0  0  0  0  0  0  0  0  0
   -6.0607   12.2852   -9.8870 H   0  0  0  0  0  0  0  0  0  0  0  0
   -8.0906   10.5553   -7.5885 H   0  0  0  0  0  0  0  0  0  0  0  0
   -7.3891    8.9020   -7.5556 H   0  0  0  0  0  0  0  0  0  0  0  0
   -4.8892    8.7741   -8.4833 H   0  0  0  0  0  0  0  0  0  0  0  0
   -2.8612   12.1924   -7.9527 H   0  0  0  0  0  0  0  0  0  0  0  0
   -2.8628   11.4670   -6.3094 H   0  0  0  0  0  0  0  0  0  0  0  0
   -3.0270    9.6184   -7.1248 H   0  0  0  0  0  0  0  0  0  0  0  0
   -3.0225   10.3437   -8.7681 H   0  0  0  0  0  0  0  0  0  0  0  0
   -6.7366   12.3128   -6.9153 H   0  0  0  0  0  0  0  0  0  0  0  0
   -5.4700   14.1039   -6.1424 H   0  0  0  0  0  0  0  0  0  0  0  0
   -3.9148   13.6392   -5.3732 H   0  0  0  0  0  0  0  0  0  0  0  0
   -3.9239   14.3505   -7.0227 H   0  0  0  0  0  0  0  0  0  0  0  0
  1  2  1  0  0  0  0
  1  3  1  0  0  0  0
  1  4  1  0  0  0  0
  2  5  1  0  0  0  0
  3  6  1  0  0  0  0
  5  6  1  0  0  0  0
  6 12  1  0  0  0  0
  7  8  1  0  0  0  0
  7 10  2  0  0  0  0
  7 12  1  0  0  0  0
  8  9  1  0  0  0  0
  8 11  2  0  0  0  0
  9 15  2  0  0  0  0
 10 14  1  0  0  0  0
 12 13  2  0  0  0  0
 14 15  1  0  0  0  0
 14 18  2  0  0  0  0
 15 16  1  0  0  0  0
 16 17  2  0  0  0  0
 17 18  1  0  0  0  0
 18 19  1  0  0  0  0
 19 20  1  0  0  0  0
 20 21  2  0  0  0  0
 20 25  1  0  0  0  0
 21 24  1  0  0  0  0
 22 23  1  0  0  0  0
 22 24  1  0  0  0  0
 23 25  2  0  0  0  0
 23 26  1  0  0  0  0
  1 27  1  0  0  0  0
  2 28  1  0  0  0  0
  2 29  1  0  0  0  0
  3 30  1  0  0  0  0
  3 31  1  0  0  0  0
  4 32  1  0  0  0  0
  5 33  1  0  0  0  0
  5 34  1  0  0  0  0
  9 35  1  0  0  0  0
 10 36  1  0  0  0  0
 19 37  1  0  0  0  0
 19 38  1  0  0  0  0
 21 39  1  0  0  0  0
 22 40  1  0  0  0  0
 22 41  1  0  0  0  0
 24 42  1  0  0  0  0
 24 43  1  0  0  0  0
 25 44  1  0  0  0  0
 26 45  1  0  0  0  0
 26 46  1  0  0  0  0
 26 47  1  0  0  0  0
M  END
> <Name>
13

> <IC50[uM]>
0.006

$$$$
13
  -OEChem-05192314333D
 Structure written by MMmdl.
 47 50  0     1  0  0  0  0  0999 V2000
   -2.2088   12.9419  -10.9697 C   0  0  1  0  0  0  0  0  0  0  0  0
   -2.1904   14.4671  -10.9424 C   0  0  0  0  0  0  0  0  0  0  0  0
   -3.6992   12.5876  -10.8377 C   0  0  0  0  0  0  0  0  0  0  0  0
   -1.6826   12.4744  -12.1795 O   0  0  0  0  0  0  0  0  0  0  0  0
   -3.5107   14.9139  -11.6089 C   0  0  0  0  0  0  0  0  0  0  0  0
   -4.3443   13.7200  -11.5243 N   0  0  0  0  0  0  0  0  0  0  0  0
   -6.3525   12.3601  -12.0338 C   0  0  0  0  0  0  0  0  0  0  0  0
   -6.9727   11.7556  -13.1375 C   0  0  0  0  0  0  0  0  0  0  0  0
   -7.7097   10.5633  -13.0339 C   0  0  0  0  0  0  0  0  0  0  0  0
   -6.5001   11.8056  -10.7491 C   0  0  0  0  0  0  0  0  0  0  0  0
   -6.8506   12.3073  -14.3824 O   0  0  0  0  0  0  0  0  0  0  0  0
   -5.5377   13.6382  -12.2001 C   0  0  0  0  0  0  0  0  0  0  0  0
   -5.9500   14.5444  -12.9177 O   0  0  0  0  0  0  0  0  0  0  0  0
   -7.2308   10.6159  -10.6131 C   0  0  0  0  0  0  0  0  0  0  0  0
   -7.8083   10.0113  -11.7524 C   0  0  0  0  0  0  0  0  0  0  0  0
   -8.4200    8.8675  -11.2880 N   0  0  0  0  0  0  0  0  0  0  0  0
   -8.2847    8.7400   -9.9757 N   0  0  0  0  0  0  0  0  0  0  0  0
   -7.6047    9.7473   -9.5145 C   0  0  0  0  0  0  0  0  0  0  0  0
   -7.3264    9.8951   -8.0245 C   0  0  0  0  0  0  0  0  0  0  0  0
   -5.9604   10.4805   -7.7353 C   0  0  0  0  0  0  0  0  0  0  0  0
   -4.8075    9.7596   -8.0491 C   0  0  0  0  0  0  0  0  0  0  0  0
   -3.4358   11.5809   -7.2415 C   0  0  0  0  0  0  0  0  0  0  0  0
   -4.5835   12.3061   -6.9225 C   0  0  0  0  0  0  0  0  0  0  0  0
   -3.5481   10.3107   -7.8024 C   0  0  0  0  0  0  0  0  0  0  0  0
   -5.8471   11.7541   -7.1666 C   0  0  0  0  0  0  0  0  0  0  0  0
   -4.4650   13.6954   -6.3241 C   0  0  0  0  0  0  0  0  0  0  0  0
   -1.6558   12.5461  -10.1051 H   0  0  0  0  0  0  0  0  0  0  0  0
   -2.1418   14.8314   -9.9056 H   0  0  0  0  0  0  0  0  0  0  0  0
   -1.3273   14.8503  -11.5065 H   0  0  0  0  0  0  0  0  0  0  0  0
   -3.9292   11.6343  -11.3361 H   0  0  0  0  0  0  0  0  0  0  0  0
   -4.0052   12.5329   -9.7825 H   0  0  0  0  0  0  0  0  0  0  0  0
   -1.6986   11.5246  -12.1863 H   0  0  0  0  0  0  0  0  0  0  0  0
   -3.9654   15.7526  -11.0614 H   0  0  0  0  0  0  0  0  0  0  0  0
   -3.3451   15.2065  -12.6563 H   0  0  0  0  0  0  0  0  0  0  0  0
   -5.4494   11.7544  -12.1998 H   0  0  0  0  0  0  0  0  0  0  0  0
   -8.1726   10.1006  -13.8930 H   0  0  0  0  0  0  0  0  0  0  0  0
   -6.0607   12.2852   -9.8870 H   0  0  0  0  0  0  0  0  0  0  0  0
   -8.0295    9.6121   -7.2551 H   0  0  0  0  0  0  0  0  0  0  0  0
   -4.8892    8.7741   -8.4833 H   0  0  0  0  0  0  0  0  0  0  0  0
   -2.4600   12.0040   -7.0537 H   0  0  0  0  0  0  0  0  0  0  0  0
   -4.5836   11.8682   -5.9134 H   0  0  0  0  0  0  0  0  0  0  0  0
   -2.6581    9.7501   -8.0474 H   0  0  0  0  0  0  0  0  0  0  0  0
   -6.3717   12.4489   -7.8389 H   0  0  0  0  0  0  0  0  0  0  0  0
   -6.3685   11.7163   -6.1988 H   0  0  0  0  0  0  0  0  0  0  0  0
   -5.4700   14.1039   -6.1424 H   0  0  0  0  0  0  0  0  0  0  0  0
   -3.9148   13.6392   -5.3732 H   0  0  0  0  0  0  0  0  0  0  0  0
   -3.9239   14.3505   -7.0227 H   0  0  0  0  0  0  0  0  0  0  0  0
  1  2  1  0  0  0  0
  1  3  1  0  0  0  0
  1  4  1  0  0  0  0
  2  5  1  0  0  0  0
  3  6  1  0  0  0  0
  5  6  1  0  0  0  0
  6 12  1  0  0  0  0
  7  8  1  0  0  0  0
  7 10  1  0  0  0  0
  7 12  1  0  0  0  0
  8  9  1  0  0  0  0
  8 11  2  0  0  0  0
  9 15  2  0  0  0  0
 10 14  2  0  0  0  0
 12 13  2  0  0  0  0
 14 15  1  0  0  0  0
 14 18  1  0  0  0  0
 15 16  1  0  0  0  0
 16 17  2  0  0  0  0
 17 18  1  0  0  0  0
 18 19  2  0  0  0  0
 19 20  1  0  0  0  0
 20 21  2  0  0  0  0
 20 25  1  0  0  0  0
 21 24  1  0  0  0  0
 22 23  1  0  0  0  0
 22 24  2  0  0  0  0
 23 25  1  0  0  0  0
 23 26  1  0  0  0  0
  1 27  1  0  0  0  0
  2 28  1  0  0  0  0
  2 29  1  0  0  0  0
  3 30  1  0  0  0  0
  3 31  1  0  0  0  0
  4 32  1  0  0  0  0
  5 33  1  0  0  0  0
  5 34  1  0  0  0  0
  7 35  1  0  0  0  0
  9 36  1  0  0  0  0
 10 37  1  0  0  0  0
 19 38  1  0  0  0  0
 21 39  1  0  0  0  0
 22 40  1  0  0  0  0
 23 41  1  0  0  0  0
 24 42  1  0  0  0  0
 25 43  1  0  0  0  0
 25 44  1  0  0  0  0
 26 45  1  0  0  0  0
 26 46  1  0  0  0  0
 26 47  1  0  0  0  0
M  END
> <Name>
13

> <IC50[uM]>
0.006

$$$$
13
  -OEChem-05192314333D
 Structure written by MMmdl.
 47 50  0     1  0  0  0  0  0999 V2000
   -2.2088   12.9419  -10.9697 C   0  0  1  0  0  0  0  0  0  0  0  0
   -2.1904   14.4671  -10.9424 C   0  0  0  0  0  0  0  0  0  0  0  0
   -3.6992   12.5876  -10.8377 C   0  0  0  0  0  0  0  0  0  0  0  0
   -1.6826   12.4744  -12.1795 O   0  0  0  0  0  0  0  0  0  0  0  0
   -3.5107   14.9139  -11.6089 C   0  0  0  0  0  0  0  0  0  0  0  0
   -4.3443   13.7200  -11.5243 N   0  0  0  0  0  0  0  0  0  0  0  0
   -6.3525   12.3601  -12.0338 C   0  0  0  0  0  0  0  0  0  0  0  0
   -6.9727   11.7556  -13.1375 C   0  0  0  0  0  0  0  0  0  0  0  0
   -7.7097   10.5633  -13.0339 C   0  0  0  0  0  0  0  0  0  0  0  0
   -6.5001   11.8056  -10.7491 C   0  0  0  0  0  0  0  0  0  0  0  0
   -6.8506   12.3073  -14.3824 O   0  0  0  0  0  0  0  0  0  0  0  0
   -5.5377   13.6382  -12.2001 C   0  0  0  0  0  0  0  0  0  0  0  0
   -5.9500   14.5444  -12.9177 O   0  0  0  0  0  0  0  0  0  0  0  0
   -7.2308   10.6159  -10.6131 C   0  0  0  0  0  0  0  0  0  0  0  0
   -7.8083   10.0113  -11.7524 C   0  0  0  0  0  0  0  0  0  0  0  0
   -8.4200    8.8675  -11.2880 N   0  0  0  0  0  0  0  0  0  0  0  0
   -8.2847    8.7400   -9.9757 N   0  0  0  0  0  0  0  0  0  0  0  0
   -7.6047    9.7473   -9.5145 C   0  0  0  0  0  0  0  0  0  0  0  0
   -7.3264    9.8951   -8.0245 C   0  0  0  0  0  0  0  0  0  0  0  0
   -5.9604   10.4805   -7.7353 C   0  0  0  0  0  0  0  0  0  0  0  0
   -4.8075    9.7596   -8.0491 C   0  0  0  0  0  0  0  0  0  0  0  0
   -3.4358   11.5809   -7.2415 C   0  0  0  0  0  0  0  0  0  0  0  0
   -4.5835   12.3061   -6.9225 C   0  0  0  0  0  0  0  0  0  0  0  0
   -3.5481   10.3107   -7.8024 C   0  0  0  0  0  0  0  0  0  0  0  0
   -5.8471   11.7541   -7.1666 C   0  0  0  0  0  0  0  0  0  0  0  0
   -4.4650   13.6954   -6.3241 C   0  0  0  0  0  0  0  0  0  0  0  0
   -1.6558   12.5461  -10.1051 H   0  0  0  0  0  0  0  0  0  0  0  0
   -2.1418   14.8314   -9.9056 H   0  0  0  0  0  0  0  0  0  0  0  0
   -1.3273   14.8503  -11.5065 H   0  0  0  0  0  0  0  0  0  0  0  0
   -3.9292   11.6343  -11.3361 H   0  0  0  0  0  0  0  0  0  0  0  0
   -4.0052   12.5329   -9.7825 H   0  0  0  0  0  0  0  0  0  0  0  0
   -1.6986   11.5246  -12.1863 H   0  0  0  0  0  0  0  0  0  0  0  0
   -3.9654   15.7526  -11.0614 H   0  0  0  0  0  0  0  0  0  0  0  0
   -3.3451   15.2065  -12.6563 H   0  0  0  0  0  0  0  0  0  0  0  0
   -5.4494   11.7544  -12.1998 H   0  0  0  0  0  0  0  0  0  0  0  0
   -8.1726   10.1006  -13.8930 H   0  0  0  0  0  0  0  0  0  0  0  0
   -6.0607   12.2852   -9.8870 H   0  0  0  0  0  0  0  0  0  0  0  0
   -8.0295    9.6121   -7.2551 H   0  0  0  0  0  0  0  0  0  0  0  0
   -5.9749   10.0291   -6.7323 H   0  0  0  0  0  0  0  0  0  0  0  0
   -4.8892    8.7741   -8.4833 H   0  0  0  0  0  0  0  0  0  0  0  0
   -2.4600   12.0040   -7.0537 H   0  0  0  0  0  0  0  0  0  0  0  0
   -2.6581    9.7501   -8.0474 H   0  0  0  0  0  0  0  0  0  0  0  0
   -6.3717   12.4489   -7.8389 H   0  0  0  0  0  0  0  0  0  0  0  0
   -6.3685   11.7163   -6.1988 H   0  0  0  0  0  0  0  0  0  0  0  0
   -5.4700   14.1039   -6.1424 H   0  0  0  0  0  0  0  0  0  0  0  0
   -3.9148   13.6392   -5.3732 H   0  0  0  0  0  0  0  0  0  0  0  0
   -3.9239   14.3505   -7.0227 H   0  0  0  0  0  0  0  0  0  0  0  0
  1  2  1  0  0  0  0
  1  3  1  0  0  0  0
  1  4  1  0  0  0  0
  2  5  1  0  0  0  0
  3  6  1  0  0  0  0
  5  6  1  0  0  0  0
  6 12  1  0  0  0  0
  7  8  1  0  0  0  0
  7 10  1  0  0  0  0
  7 12  1  0  0  0  0
  8  9  1  0  0  0  0
  8 11  2  0  0  0  0
  9 15  2  0  0  0  0
 10 14  2  0  0  0  0
 12 13  2  0  0  0  0
 14 15  1  0  0  0  0
 14 18  1  0  0  0  0
 15 16  1  0  0  0  0
 16 17  2  0  0  0  0
 17 18  1  0  0  0  0
 18 19  2  0  0  0  0
 19 20  1  0  0  0  0
 20 21  1  0  0  0  0
 20 25  1  0  0  0  0
 21 24  2  0  0  0  0
 22 23  2  0  0  0  0
 22 24  1  0  0  0  0
 23 25  1  0  0  0  0
 23 26  1  0  0  0  0
  1 27  1  0  0  0  0
  2 28  1  0  0  0  0
  2 29  1  0  0  0  0
  3 30  1  0  0  0  0
  3 31  1  0  0  0  0
  4 32  1  0  0  0  0
  5 33  1  0  0  0  0
  5 34  1  0  0  0  0
  7 35  1  0  0  0  0
  9 36  1  0  0  0  0
 10 37  1  0  0  0  0
 19 38  1  0  0  0  0
 20 39  1  0  0  0  0
 21 40  1  0  0  0  0
 22 41  1  0  0  0  0
 24 42  1  0  0  0  0
 25 43  1  0  0  0  0
 25 44  1  0  0  0  0
 26 45  1  0  0  0  0
 26 46  1  0  0  0  0
 26 47  1  0  0  0  0
M  END
> <Name>
13

> <IC50[uM]>
0.006

$$$$
13
  -OEChem-05192314333D
 Structure written by MMmdl.
 47 50  0     1  0  0  0  0  0999 V2000
   -2.2088   12.9419  -10.9697 C   0  0  1  0  0  0  0  0  0  0  0  0
   -2.1904   14.4671  -10.9424 C   0  0  0  0  0  0  0  0  0  0  0  0
   -3.6992   12.5876  -10.8377 C   0  0  0  0  0  0  0  0  0  0  0  0
   -1.6826   12.4744  -12.1795 O   0  0  0  0  0  0  0  0  0  0  0  0
   -3.5107   14.9139  -11.6089 C   0  0  0  0  0  0  0  0  0  0  0  0
   -4.3443   13.7200  -11.5243 N   0  0  0  0  0  0  0  0  0  0  0  0
   -6.3525   12.3601  -12.0338 C   0  0  0  0  0  0  0  0  0  0  0  0
   -6.9727   11.7556  -13.1375 C   0  0  0  0  0  0  0  0  0  0  0  0
   -7.7097   10.5633  -13.0339 C   0  0  0  0  0  0  0  0  0  0  0  0
   -6.5001   11.8056  -10.7491 C   0  0  0  0  0  0  0  0  0  0  0  0
   -6.8506   12.3073  -14.3824 O   0  0  0  0  0  0  0  0  0  0  0  0
   -5.5377   13.6382  -12.2001 C   0  0  0  0  0  0  0  0  0  0  0  0
   -5.9500   14.5444  -12.9177 O   0  0  0  0  0  0  0  0  0  0  0  0
   -7.2308   10.6159  -10.6131 C   0  0  0  0  0  0  0  0  0  0  0  0
   -7.8083   10.0113  -11.7524 C   0  0  0  0  0  0  0  0  0  0  0  0
   -8.4200    8.8675  -11.2880 N   0  0  0  0  0  0  0  0  0  0  0  0
   -8.2847    8.7400   -9.9757 N   0  0  0  0  0  0  0  0  0  0  0  0
   -7.6047    9.7473   -9.5145 C   0  0  0  0  0  0  0  0  0  0  0  0
   -7.3264    9.8951   -8.0245 C   0  0  0  0  0  0  0  0  0  0  0  0
   -5.9604   10.4805   -7.7353 C   0  0  0  0  0  0  0  0  0  0  0  0
   -4.8075    9.7596   -8.0491 C   0  0  0  0  0  0  0  0  0  0  0  0
   -3.4358   11.5809   -7.2415 C   0  0  0  0  0  0  0  0  0  0  0  0
   -4.5835   12.3061   -6.9225 C   0  0  0  0  0  0  0  0  0  0  0  0
   -3.5481   10.3107   -7.8024 C   0  0  0  0  0  0  0  0  0  0  0  0
   -5.8471   11.7541   -7.1666 C   0  0  0  0  0  0  0  0  0  0  0  0
   -4.4650   13.6954   -6.3241 C   0  0  0  0  0  0  0  0  0  0  0  0
   -1.6558   12.5461  -10.1051 H   0  0  0  0  0  0  0  0  0  0  0  0
   -2.1418   14.8314   -9.9056 H   0  0  0  0  0  0  0  0  0  0  0  0
   -1.3273   14.8503  -11.5065 H   0  0  0  0  0  0  0  0  0  0  0  0
   -3.9292   11.6343  -11.3361 H   0  0  0  0  0  0  0  0  0  0  0  0
   -4.0052   12.5329   -9.7825 H   0  0  0  0  0  0  0  0  0  0  0  0
   -1.6986   11.5246  -12.1863 H   0  0  0  0  0  0  0  0  0  0  0  0
   -3.9654   15.7526  -11.0614 H   0  0  0  0  0  0  0  0  0  0  0  0
   -3.3451   15.2065  -12.6563 H   0  0  0  0  0  0  0  0  0  0  0  0
   -8.1726   10.1006  -13.8930 H   0  0  0  0  0  0  0  0  0  0  0  0
   -6.0607   12.2852   -9.8870 H   0  0  0  0  0  0  0  0  0  0  0  0
   -6.3117   10.0311  -10.7657 H   0  0  0  0  0  0  0  0  0  0  0  0
   -8.0295    9.6121   -7.2551 H   0  0  0  0  0  0  0  0  0  0  0  0
   -4.8892    8.7741   -8.4833 H   0  0  0  0  0  0  0  0  0  0  0  0
   -2.4600   12.0040   -7.0537 H   0  0  0  0  0  0  0  0  0  0  0  0
   -4.5836   11.8682   -5.9134 H   0  0  0  0  0  0  0  0  0  0  0  0
   -2.6581    9.7501   -8.0474 H   0  0  0  0  0  0  0  0  0  0  0  0
   -6.3717   12.4489   -7.8389 H   0  0  0  0  0  0  0  0  0  0  0  0
   -6.3685   11.7163   -6.1988 H   0  0  0  0  0  0  0  0  0  0  0  0
   -5.4700   14.1039   -6.1424 H   0  0  0  0  0  0  0  0  0  0  0  0
   -3.9148   13.6392   -5.3732 H   0  0  0  0  0  0  0  0  0  0  0  0
   -3.9239   14.3505   -7.0227 H   0  0  0  0  0  0  0  0  0  0  0  0
  1  2  1  0  0  0  0
  1  3  1  0  0  0  0
  1  4  1  0  0  0  0
  2  5  1  0  0  0  0
  3  6  1  0  0  0  0
  5  6  1  0  0  0  0
  6 12  1  0  0  0  0
  7  8  1  0  0  0  0
  7 10  2  0  0  0  0
  7 12  1  0  0  0  0
  8  9  1  0  0  0  0
  8 11  2  0  0  0  0
  9 15  2  0  0  0  0
 10 14  1  0  0  0  0
 12 13  2  0  0  0  0
 14 15  1  0  0  0  0
 14 18  1  0  0  0  0
 15 16  1  0  0  0  0
 16 17  2  0  0  0  0
 17 18  1  0  0  0  0
 18 19  2  0  0  0  0
 19 20  1  0  0  0  0
 20 21  2  0  0  0  0
 20 25  1  0  0  0  0
 21 24  1  0  0  0  0
 22 23  1  0  0  0  0
 22 24  2  0  0  0  0
 23 25  1  0  0  0  0
 23 26  1  0  0  0  0
  1 27  1  0  0  0  0
  2 28  1  0  0  0  0
  2 29  1  0  0  0  0
  3 30  1  0  0  0  0
  3 31  1  0  0  0  0
  4 32  1  0  0  0  0
  5 33  1  0  0  0  0
  5 34  1  0  0  0  0
  9 35  1  0  0  0  0
 10 36  1  0  0  0  0
 14 37  1  0  0  0  0
 19 38  1  0  0  0  0
 21 39  1  0  0  0  0
 22 40  1  0  0  0  0
 23 41  1  0  0  0  0
 24 42  1  0  0  0  0
 25 43  1  0  0  0  0
 25 44  1  0  0  0  0
 26 45  1  0  0  0  0
 26 46  1  0  0  0  0
 26 47  1  0  0  0  0
M  END
> <Name>
13

> <IC50[uM]>
0.006

$$$$
13
  -OEChem-05192314333D
 Structure written by MMmdl.
 47 50  0     1  0  0  0  0  0999 V2000
   -2.2088   12.9419  -10.9697 C   0  0  1  0  0  0  0  0  0  0  0  0
   -2.1904   14.4671  -10.9424 C   0  0  0  0  0  0  0  0  0  0  0  0
   -3.6992   12.5876  -10.8377 C   0  0  0  0  0  0  0  0  0  0  0  0
   -1.6826   12.4744  -12.1795 O   0  0  0  0  0  0  0  0  0  0  0  0
   -3.5107   14.9139  -11.6089 C   0  0  0  0  0  0  0  0  0  0  0  0
   -4.3443   13.7200  -11.5243 N   0  0  0  0  0  0  0  0  0  0  0  0
   -6.3525   12.3601  -12.0338 C   0  0  0  0  0  0  0  0  0  0  0  0
   -6.9727   11.7556  -13.1375 C   0  0  0  0  0  0  0  0  0  0  0  0
   -7.7097   10.5633  -13.0339 C   0  0  0  0  0  0  0  0  0  0  0  0
   -6.5001   11.8056  -10.7491 C   0  0  0  0  0  0  0  0  0  0  0  0
   -6.8506   12.3073  -14.3824 O   0  0  0  0  0  0  0  0  0  0  0  0
   -5.5377   13.6382  -12.2001 C   0  0  0  0  0  0  0  0  0  0  0  0
   -5.9500   14.5444  -12.9177 O   0  0  0  0  0  0  0  0  0  0  0  0
   -7.2308   10.6159  -10.6131 C   0  0  0  0  0  0  0  0  0  0  0  0
   -7.8083   10.0113  -11.7524 C   0  0  0  0  0  0  0  0  0  0  0  0
   -8.4200    8.8675  -11.2880 N   0  0  0  0  0  0  0  0  0  0  0  0
   -8.2847    8.7400   -9.9757 N   0  0  0  0  0  0  0  0  0  0  0  0
   -7.6047    9.7473   -9.5145 C   0  0  0  0  0  0  0  0  0  0  0  0
   -7.3264    9.8951   -8.0245 C   0  0  0  0  0  0  0  0  0  0  0  0
   -5.9604   10.4805   -7.7353 C   0  0  0  0  0  0  0  0  0  0  0  0
   -4.8075    9.7596   -8.0491 C   0  0  0  0  0  0  0  0  0  0  0  0
   -3.4358   11.5809   -7.2415 C   0  0  0  0  0  0  0  0  0  0  0  0
   -4.5835   12.3061   -6.9225 C   0  0  0  0  0  0  0  0  0  0  0  0
   -3.5481   10.3107   -7.8024 C   0  0  0  0  0  0  0  0  0  0  0  0
   -5.8471   11.7541   -7.1666 C   0  0  0  0  0  0  0  0  0  0  0  0
   -4.4650   13.6954   -6.3241 C   0  0  0  0  0  0  0  0  0  0  0  0
   -1.6558   12.5461  -10.1051 H   0  0  0  0  0  0  0  0  0  0  0  0
   -2.1418   14.8314   -9.9056 H   0  0  0  0  0  0  0  0  0  0  0  0
   -1.3273   14.8503  -11.5065 H   0  0  0  0  0  0  0  0  0  0  0  0
   -3.9292   11.6343  -11.3361 H   0  0  0  0  0  0  0  0  0  0  0  0
   -4.0052   12.5329   -9.7825 H   0  0  0  0  0  0  0  0  0  0  0  0
   -1.6986   11.5246  -12.1863 H   0  0  0  0  0  0  0  0  0  0  0  0
   -3.9654   15.7526  -11.0614 H   0  0  0  0  0  0  0  0  0  0  0  0
   -3.3451   15.2065  -12.6563 H   0  0  0  0  0  0  0  0  0  0  0  0
   -8.1726   10.1006  -13.8930 H   0  0  0  0  0  0  0  0  0  0  0  0
   -6.0607   12.2852   -9.8870 H   0  0  0  0  0  0  0  0  0  0  0  0
   -6.3117   10.0311  -10.7657 H   0  0  0  0  0  0  0  0  0  0  0  0
   -8.0295    9.6121   -7.2551 H   0  0  0  0  0  0  0  0  0  0  0  0
   -5.9749   10.0291   -6.7323 H   0  0  0  0  0  0  0  0  0  0  0  0
   -4.8892    8.7741   -8.4833 H   0  0  0  0  0  0  0  0  0  0  0  0
   -2.4600   12.0040   -7.0537 H   0  0  0  0  0  0  0  0  0  0  0  0
   -2.6581    9.7501   -8.0474 H   0  0  0  0  0  0  0  0  0  0  0  0
   -6.3717   12.4489   -7.8389 H   0  0  0  0  0  0  0  0  0  0  0  0
   -6.3685   11.7163   -6.1988 H   0  0  0  0  0  0  0  0  0  0  0  0
   -5.4700   14.1039   -6.1424 H   0  0  0  0  0  0  0  0  0  0  0  0
   -3.9148   13.6392   -5.3732 H   0  0  0  0  0  0  0  0  0  0  0  0
   -3.9239   14.3505   -7.0227 H   0  0  0  0  0  0  0  0  0  0  0  0
  1  2  1  0  0  0  0
  1  3  1  0  0  0  0
  1  4  1  0  0  0  0
  2  5  1  0  0  0  0
  3  6  1  0  0  0  0
  5  6  1  0  0  0  0
  6 12  1  0  0  0  0
  7  8  1  0  0  0  0
  7 10  2  0  0  0  0
  7 12  1  0  0  0  0
  8  9  1  0  0  0  0
  8 11  2  0  0  0  0
  9 15  2  0  0  0  0
 10 14  1  0  0  0  0
 12 13  2  0  0  0  0
 14 15  1  0  0  0  0
 14 18  1  0  0  0  0
 15 16  1  0  0  0  0
 16 17  2  0  0  0  0
 17 18  1  0  0  0  0
 18 19  2  0  0  0  0
 19 20  1  0  0  0  0
 20 21  1  0  0  0  0
 20 25  1  0  0  0  0
 21 24  2  0  0  0  0
 22 23  2  0  0  0  0
 22 24  1  0  0  0  0
 23 25  1  0  0  0  0
 23 26  1  0  0  0  0
  1 27  1  0  0  0  0
  2 28  1  0  0  0  0
  2 29  1  0  0  0  0
  3 30  1  0  0  0  0
  3 31  1  0  0  0  0
  4 32  1  0  0  0  0
  5 33  1  0  0  0  0
  5 34  1  0  0  0  0
  9 35  1  0  0  0  0
 10 36  1  0  0  0  0
 14 37  1  0  0  0  0
 19 38  1  0  0  0  0
 20 39  1  0  0  0  0
 21 40  1  0  0  0  0
 22 41  1  0  0  0  0
 24 42  1  0  0  0  0
 25 43  1  0  0  0  0
 25 44  1  0  0  0  0
 26 45  1  0  0  0  0
 26 46  1  0  0  0  0
 26 47  1  0  0  0  0
M  END
> <Name>
13

> <IC50[uM]>
0.006

$$$$
13
  -OEChem-05192314333D
 Structure written by MMmdl.
 47 50  0     1  0  0  0  0  0999 V2000
   -2.2088   12.9419  -10.9697 C   0  0  1  0  0  0  0  0  0  0  0  0
   -2.1904   14.4671  -10.9424 C   0  0  0  0  0  0  0  0  0  0  0  0
   -3.6992   12.5876  -10.8377 C   0  0  0  0  0  0  0  0  0  0  0  0
   -1.6826   12.4744  -12.1795 O   0  0  0  0  0  0  0  0  0  0  0  0
   -3.5107   14.9139  -11.6089 C   0  0  0  0  0  0  0  0  0  0  0  0
   -4.3443   13.7200  -11.5243 N   0  0  0  0  0  0  0  0  0  0  0  0
   -6.3525   12.3601  -12.0338 C   0  0  0  0  0  0  0  0  0  0  0  0
   -6.9727   11.7556  -13.1375 C   0  0  0  0  0  0  0  0  0  0  0  0
   -7.7097   10.5633  -13.0339 C   0  0  0  0  0  0  0  0  0  0  0  0
   -6.5001   11.8056  -10.7491 C   0  0  0  0  0  0  0  0  0  0  0  0
   -6.8506   12.3073  -14.3824 O   0  0  0  0  0  0  0  0  0  0  0  0
   -5.5377   13.6382  -12.2001 C   0  0  0  0  0  0  0  0  0  0  0  0
   -5.9500   14.5444  -12.9177 O   0  0  0  0  0  0  0  0  0  0  0  0
   -7.2308   10.6159  -10.6131 C   0  0  0  0  0  0  0  0  0  0  0  0
   -7.8083   10.0113  -11.7524 C   0  0  0  0  0  0  0  0  0  0  0  0
   -8.4200    8.8675  -11.2880 N   0  0  0  0  0  0  0  0  0  0  0  0
   -8.2847    8.7400   -9.9757 N   0  0  0  0  0  0  0  0  0  0  0  0
   -7.6047    9.7473   -9.5145 C   0  0  0  0  0  0  0  0  0  0  0  0
   -7.3264    9.8951   -8.0245 C   0  0  0  0  0  0  0  0  0  0  0  0
   -5.9604   10.4805   -7.7353 C   0  0  0  0  0  0  0  0  0  0  0  0
   -4.8075    9.7596   -8.0491 C   0  0  0  0  0  0  0  0  0  0  0  0
   -3.4358   11.5809   -7.2415 C   0  0  0  0  0  0  0  0  0  0  0  0
   -4.5835   12.3061   -6.9225 C   0  0  0  0  0  0  0  0  0  0  0  0
   -3.5481   10.3107   -7.8024 C   0  0  0  0  0  0  0  0  0  0  0  0
   -5.8471   11.7541   -7.1666 C   0  0  0  0  0  0  0  0  0  0  0  0
   -4.4650   13.6954   -6.3241 C   0  0  0  0  0  0  0  0  0  0  0  0
   -1.6558   12.5461  -10.1051 H   0  0  0  0  0  0  0  0  0  0  0  0
   -2.1418   14.8314   -9.9056 H   0  0  0  0  0  0  0  0  0  0  0  0
   -1.3273   14.8503  -11.5065 H   0  0  0  0  0  0  0  0  0  0  0  0
   -3.9292   11.6343  -11.3361 H   0  0  0  0  0  0  0  0  0  0  0  0
   -4.0052   12.5329   -9.7825 H   0  0  0  0  0  0  0  0  0  0  0  0
   -1.6986   11.5246  -12.1863 H   0  0  0  0  0  0  0  0  0  0  0  0
   -3.9654   15.7526  -11.0614 H   0  0  0  0  0  0  0  0  0  0  0  0
   -3.3451   15.2065  -12.6563 H   0  0  0  0  0  0  0  0  0  0  0  0
   -5.4494   11.7544  -12.1998 H   0  0  0  0  0  0  0  0  0  0  0  0
   -8.1726   10.1006  -13.8930 H   0  0  0  0  0  0  0  0  0  0  0  0
   -6.0607   12.2852   -9.8870 H   0  0  0  0  0  0  0  0  0  0  0  0
   -6.6702    9.1804   -9.6379 H   0  0  0  0  0  0  0  0  0  0  0  0
   -8.0295    9.6121   -7.2551 H   0  0  0  0  0  0  0  0  0  0  0  0
   -4.8892    8.7741   -8.4833 H   0  0  0  0  0  0  0  0  0  0  0  0
   -2.4600   12.0040   -7.0537 H   0  0  0  0  0  0  0  0  0  0  0  0
   -2.6581    9.7501   -8.0474 H   0  0  0  0  0  0  0  0  0  0  0  0
   -6.3717   12.4489   -7.8389 H   0  0  0  0  0  0  0  0  0  0  0  0
   -6.3685   11.7163   -6.1988 H   0  0  0  0  0  0  0  0  0  0  0  0
   -5.4700   14.1039   -6.1424 H   0  0  0  0  0  0  0  0  0  0  0  0
   -3.9148   13.6392   -5.3732 H   0  0  0  0  0  0  0  0  0  0  0  0
   -3.9239   14.3505   -7.0227 H   0  0  0  0  0  0  0  0  0  0  0  0
  1  2  1  0  0  0  0
  1  3  1  0  0  0  0
  1  4  1  0  0  0  0
  2  5  1  0  0  0  0
  3  6  1  0  0  0  0
  5  6  1  0  0  0  0
  6 12  1  0  0  0  0
  7  8  1  0  0  0  0
  7 10  1  0  0  0  0
  7 12  1  0  0  0  0
  8  9  1  0  0  0  0
  8 11  2  0  0  0  0
  9 15  2  0  0  0  0
 10 14  2  0  0  0  0
 12 13  2  0  0  0  0
 14 15  1  0  0  0  0
 14 18  1  0  0  0  0
 15 16  1  0  0  0  0
 16 17  2  0  0  0  0
 17 18  1  0  0  0  0
 18 19  1  0  0  0  0
 19 20  2  0  0  0  0
 20 21  1  0  0  0  0
 20 25  1  0  0  0  0
 21 24  2  0  0  0  0
 22 23  2  0  0  0  0
 22 24  1  0  0  0  0
 23 25  1  0  0  0  0
 23 26  1  0  0  0  0
  1 27  1  0  0  0  0
  2 28  1  0  0  0  0
  2 29  1  0  0  0  0
  3 30  1  0  0  0  0
  3 31  1  0  0  0  0
  4 32  1  0  0  0  0
  5 33  1  0  0  0  0
  5 34  1  0  0  0  0
  7 35  1  0  0  0  0
  9 36  1  0  0  0  0
 10 37  1  0  0  0  0
 18 38  1  0  0  0  0
 19 39  1  0  0  0  0
 21 40  1  0  0  0  0
 22 41  1  0  0  0  0
 24 42  1  0  0  0  0
 25 43  1  0  0  0  0
 25 44  1  0  0  0  0
 26 45  1  0  0  0  0
 26 46  1  0  0  0  0
 26 47  1  0  0  0  0
M  END
> <Name>
13

> <IC50[uM]>
0.006

$$$$
13
  -OEChem-05192314333D
 Structure written by MMmdl.
 47 50  0     1  0  0  0  0  0999 V2000
   -2.2088   12.9419  -10.9697 C   0  0  1  0  0  0  0  0  0  0  0  0
   -2.1904   14.4671  -10.9424 C   0  0  0  0  0  0  0  0  0  0  0  0
   -3.6992   12.5876  -10.8377 C   0  0  0  0  0  0  0  0  0  0  0  0
   -1.6826   12.4744  -12.1795 O   0  0  0  0  0  0  0  0  0  0  0  0
   -3.5107   14.9139  -11.6089 C   0  0  0  0  0  0  0  0  0  0  0  0
   -4.3443   13.7200  -11.5243 N   0  0  0  0  0  0  0  0  0  0  0  0
   -6.3525   12.3601  -12.0338 C   0  0  0  0  0  0  0  0  0  0  0  0
   -6.9727   11.7556  -13.1375 C   0  0  0  0  0  0  0  0  0  0  0  0
   -7.7097   10.5633  -13.0339 C   0  0  0  0  0  0  0  0  0  0  0  0
   -6.5001   11.8056  -10.7491 C   0  0  0  0  0  0  0  0  0  0  0  0
   -6.8506   12.3073  -14.3824 O   0  0  0  0  0  0  0  0  0  0  0  0
   -5.5377   13.6382  -12.2001 C   0  0  0  0  0  0  0  0  0  0  0  0
   -5.9500   14.5444  -12.9177 O   0  0  0  0  0  0  0  0  0  0  0  0
   -7.2308   10.6159  -10.6131 C   0  0  0  0  0  0  0  0  0  0  0  0
   -7.8083   10.0113  -11.7524 C   0  0  0  0  0  0  0  0  0  0  0  0
   -8.4200    8.8675  -11.2880 N   0  0  0  0  0  0  0  0  0  0  0  0
   -8.2847    8.7400   -9.9757 N   0  0  0  0  0  0  0  0  0  0  0  0
   -7.6047    9.7473   -9.5145 C   0  0  0  0  0  0  0  0  0  0  0  0
   -7.3264    9.8951   -8.0245 C   0  0  0  0  0  0  0  0  0  0  0  0
   -5.9604   10.4805   -7.7353 C   0  0  0  0  0  0  0  0  0  0  0  0
   -4.8075    9.7596   -8.0491 C   0  0  0  0  0  0  0  0  0  0  0  0
   -3.4358   11.5809   -7.2415 C   0  0  0  0  0  0  0  0  0  0  0  0
   -4.5835   12.3061   -6.9225 C   0  0  0  0  0  0  0  0  0  0  0  0
   -3.5481   10.3107   -7.8024 C   0  0  0  0  0  0  0  0  0  0  0  0
   -5.8471   11.7541   -7.1666 C   0  0  0  0  0  0  0  0  0  0  0  0
   -4.4650   13.6954   -6.3241 C   0  0  0  0  0  0  0  0  0  0  0  0
   -1.6558   12.5461  -10.1051 H   0  0  0  0  0  0  0  0  0  0  0  0
   -2.1418   14.8314   -9.9056 H   0  0  0  0  0  0  0  0  0  0  0  0
   -1.3273   14.8503  -11.5065 H   0  0  0  0  0  0  0  0  0  0  0  0
   -3.9292   11.6343  -11.3361 H   0  0  0  0  0  0  0  0  0  0  0  0
   -4.0052   12.5329   -9.7825 H   0  0  0  0  0  0  0  0  0  0  0  0
   -1.6986   11.5246  -12.1863 H   0  0  0  0  0  0  0  0  0  0  0  0
   -3.9654   15.7526  -11.0614 H   0  0  0  0  0  0  0  0  0  0  0  0
   -3.3451   15.2065  -12.6563 H   0  0  0  0  0  0  0  0  0  0  0  0
   -8.1726   10.1006  -13.8930 H   0  0  0  0  0  0  0  0  0  0  0  0
   -6.0607   12.2852   -9.8870 H   0  0  0  0  0  0  0  0  0  0  0  0
   -6.3117   10.0311  -10.7657 H   0  0  0  0  0  0  0  0  0  0  0  0
   -6.6702    9.1804   -9.6379 H   0  0  0  0  0  0  0  0  0  0  0  0
   -8.0295    9.6121   -7.2551 H   0  0  0  0  0  0  0  0  0  0  0  0
   -4.8892    8.7741   -8.4833 H   0  0  0  0  0  0  0  0  0  0  0  0
   -2.4600   12.0040   -7.0537 H   0  0  0  0  0  0  0  0  0  0  0  0
   -2.6581    9.7501   -8.0474 H   0  0  0  0  0  0  0  0  0  0  0  0
   -6.3717   12.4489   -7.8389 H   0  0  0  0  0  0  0  0  0  0  0  0
   -6.3685   11.7163   -6.1988 H   0  0  0  0  0  0  0  0  0  0  0  0
   -5.4700   14.1039   -6.1424 H   0  0  0  0  0  0  0  0  0  0  0  0
   -3.9148   13.6392   -5.3732 H   0  0  0  0  0  0  0  0  0  0  0  0
   -3.9239   14.3505   -7.0227 H   0  0  0  0  0  0  0  0  0  0  0  0
  1  2  1  0  0  0  0
  1  3  1  0  0  0  0
  1  4  1  0  0  0  0
  2  5  1  0  0  0  0
  3  6  1  0  0  0  0
  5  6  1  0  0  0  0
  6 12  1  0  0  0  0
  7  8  1  0  0  0  0
  7 10  2  0  0  0  0
  7 12  1  0  0  0  0
  8  9  1  0  0  0  0
  8 11  2  0  0  0  0
  9 15  2  0  0  0  0
 10 14  1  0  0  0  0
 12 13  2  0  0  0  0
 14 15  1  0  0  0  0
 14 18  1  0  0  0  0
 15 16  1  0  0  0  0
 16 17  2  0  0  0  0
 17 18  1  0  0  0  0
 18 19  1  0  0  0  0
 19 20  2  0  0  0  0
 20 21  1  0  0  0  0
 20 25  1  0  0  0  0
 21 24  2  0  0  0  0
 22 23  2  0  0  0  0
 22 24  1  0  0  0  0
 23 25  1  0  0  0  0
 23 26  1  0  0  0  0
  1 27  1  0  0  0  0
  2 28  1  0  0  0  0
  2 29  1  0  0  0  0
  3 30  1  0  0  0  0
  3 31  1  0  0  0  0
  4 32  1  0  0  0  0
  5 33  1  0  0  0  0
  5 34  1  0  0  0  0
  9 35  1  0  0  0  0
 10 36  1  0  0  0  0
 14 37  1  0  0  0  0
 18 38  1  0  0  0  0
 19 39  1  0  0  0  0
 21 40  1  0  0  0  0
 22 41  1  0  0  0  0
 24 42  1  0  0  0  0
 25 43  1  0  0  0  0
 25 44  1  0  0  0  0
 26 45  1  0  0  0  0
 26 46  1  0  0  0  0
 26 47  1  0  0  0  0
M  END
> <Name>
13

> <IC50[uM]>
0.006

$$$$
13
  -OEChem-05192314333D
 Structure written by MMmdl.
 47 50  0     1  0  0  0  0  0999 V2000
   -2.2088   12.9419  -10.9697 C   0  0  1  0  0  0  0  0  0  0  0  0
   -2.1904   14.4671  -10.9424 C   0  0  0  0  0  0  0  0  0  0  0  0
   -3.6992   12.5876  -10.8377 C   0  0  0  0  0  0  0  0  0  0  0  0
   -1.6826   12.4744  -12.1795 O   0  0  0  0  0  0  0  0  0  0  0  0
   -3.5107   14.9139  -11.6089 C   0  0  0  0  0  0  0  0  0  0  0  0
   -4.3443   13.7200  -11.5243 N   0  0  0  0  0  0  0  0  0  0  0  0
   -6.3525   12.3601  -12.0338 C   0  0  0  0  0  0  0  0  0  0  0  0
   -6.9727   11.7556  -13.1375 C   0  0  0  0  0  0  0  0  0  0  0  0
   -7.7097   10.5633  -13.0339 C   0  0  0  0  0  0  0  0  0  0  0  0
   -6.5001   11.8056  -10.7491 C   0  0  0  0  0  0  0  0  0  0  0  0
   -6.8506   12.3073  -14.3824 O   0  0  0  0  0  0  0  0  0  0  0  0
   -5.5377   13.6382  -12.2001 C   0  0  0  0  0  0  0  0  0  0  0  0
   -5.9500   14.5444  -12.9177 O   0  0  0  0  0  0  0  0  0  0  0  0
   -7.2308   10.6159  -10.6131 C   0  0  0  0  0  0  0  0  0  0  0  0
   -7.8083   10.0113  -11.7524 C   0  0  0  0  0  0  0  0  0  0  0  0
   -8.4200    8.8675  -11.2880 N   0  0  0  0  0  0  0  0  0  0  0  0
   -8.2847    8.7400   -9.9757 N   0  0  0  0  0  0  0  0  0  0  0  0
   -7.6047    9.7473   -9.5145 C   0  0  0  0  0  0  0  0  0  0  0  0
   -7.3264    9.8951   -8.0245 C   0  0  0  0  0  0  0  0  0  0  0  0
   -5.9604   10.4805   -7.7353 C   0  0  0  0  0  0  0  0  0  0  0  0
   -4.8075    9.7596   -8.0491 C   0  0  0  0  0  0  0  0  0  0  0  0
   -3.4358   11.5809   -7.2415 C   0  0  0  0  0  0  0  0  0  0  0  0
   -4.5835   12.3061   -6.9225 C   0  0  0  0  0  0  0  0  0  0  0  0
   -3.5481   10.3107   -7.8024 C   0  0  0  0  0  0  0  0  0  0  0  0
   -5.8471   11.7541   -7.1666 C   0  0  0  0  0  0  0  0  0  0  0  0
   -4.4650   13.6954   -6.3241 C   0  0  0  0  0  0  0  0  0  0  0  0
   -1.6558   12.5461  -10.1051 H   0  0  0  0  0  0  0  0  0  0  0  0
   -2.1418   14.8314   -9.9056 H   0  0  0  0  0  0  0  0  0  0  0  0
   -1.3273   14.8503  -11.5065 H   0  0  0  0  0  0  0  0  0  0  0  0
   -3.9292   11.6343  -11.3361 H   0  0  0  0  0  0  0  0  0  0  0  0
   -4.0052   12.5329   -9.7825 H   0  0  0  0  0  0  0  0  0  0  0  0
   -1.6986   11.5246  -12.1863 H   0  0  0  0  0  0  0  0  0  0  0  0
   -3.9654   15.7526  -11.0614 H   0  0  0  0  0  0  0  0  0  0  0  0
   -3.3451   15.2065  -12.6563 H   0  0  0  0  0  0  0  0  0  0  0  0
   -5.4494   11.7544  -12.1998 H   0  0  0  0  0  0  0  0  0  0  0  0
   -8.1726   10.1006  -13.8930 H   0  0  0  0  0  0  0  0  0  0  0  0
   -6.0607   12.2852   -9.8870 H   0  0  0  0  0  0  0  0  0  0  0  0
   -8.0295    9.6121   -7.2551 H   0  0  0  0  0  0  0  0  0  0  0  0
   -4.8892    8.7741   -8.4833 H   0  0  0  0  0  0  0  0  0  0  0  0
   -2.4600   12.0040   -7.0537 H   0  0  0  0  0  0  0  0  0  0  0  0
   -3.0270    9.6184   -7.1248 H   0  0  0  0  0  0  0  0  0  0  0  0
   -3.0225   10.3437   -8.7681 H   0  0  0  0  0  0  0  0  0  0  0  0
   -6.3717   12.4489   -7.8389 H   0  0  0  0  0  0  0  0  0  0  0  0
   -6.3685   11.7163   -6.1988 H   0  0  0  0  0  0  0  0  0  0  0  0
   -5.4700   14.1039   -6.1424 H   0  0  0  0  0  0  0  0  0  0  0  0
   -3.9148   13.6392   -5.3732 H   0  0  0  0  0  0  0  0  0  0  0  0
   -3.9239   14.3505   -7.0227 H   0  0  0  0  0  0  0  0  0  0  0  0
  1  2  1  0  0  0  0
  1  3  1  0  0  0  0
  1  4  1  0  0  0  0
  2  5  1  0  0  0  0
  3  6  1  0  0  0  0
  5  6  1  0  0  0  0
  6 12  1  0  0  0  0
  7  8  1  0  0  0  0
  7 10  1  0  0  0  0
  7 12  1  0  0  0  0
  8  9  1  0  0  0  0
  8 11  2  0  0  0  0
  9 15  2  0  0  0  0
 10 14  2  0  0  0  0
 12 13  2  0  0  0  0
 14 15  1  0  0  0  0
 14 18  1  0  0  0  0
 15 16  1  0  0  0  0
 16 17  2  0  0  0  0
 17 18  1  0  0  0  0
 18 19  2  0  0  0  0
 19 20  1  0  0  0  0
 20 21  2  0  0  0  0
 20 25  1  0  0  0  0
 21 24  1  0  0  0  0
 22 23  2  0  0  0  0
 22 24  1  0  0  0  0
 23 25  1  0  0  0  0
 23 26  1  0  0  0  0
  1 27  1  0  0  0  0
  2 28  1  0  0  0  0
  2 29  1  0  0  0  0
  3 30  1  0  0  0  0
  3 31  1  0  0  0  0
  4 32  1  0  0  0  0
  5 33  1  0  0  0  0
  5 34  1  0  0  0  0
  7 35  1  0  0  0  0
  9 36  1  0  0  0  0
 10 37  1  0  0  0  0
 19 38  1  0  0  0  0
 21 39  1  0  0  0  0
 22 40  1  0  0  0  0
 24 41  1  0  0  0  0
 24 42  1  0  0  0  0
 25 43  1  0  0  0  0
 25 44  1  0  0  0  0
 26 45  1  0  0  0  0
 26 46  1  0  0  0  0
 26 47  1  0  0  0  0
M  END
> <Name>
13

> <IC50[uM]>
0.006

$$$$
13
  -OEChem-05192314333D
 Structure written by MMmdl.
 47 50  0     1  0  0  0  0  0999 V2000
   -2.2088   12.9419  -10.9697 C   0  0  1  0  0  0  0  0  0  0  0  0
   -2.1904   14.4671  -10.9424 C   0  0  0  0  0  0  0  0  0  0  0  0
   -3.6992   12.5876  -10.8377 C   0  0  0  0  0  0  0  0  0  0  0  0
   -1.6826   12.4744  -12.1795 O   0  0  0  0  0  0  0  0  0  0  0  0
   -3.5107   14.9139  -11.6089 C   0  0  0  0  0  0  0  0  0  0  0  0
   -4.3443   13.7200  -11.5243 N   0  0  0  0  0  0  0  0  0  0  0  0
   -6.3525   12.3601  -12.0338 C   0  0  0  0  0  0  0  0  0  0  0  0
   -6.9727   11.7556  -13.1375 C   0  0  0  0  0  0  0  0  0  0  0  0
   -7.7097   10.5633  -13.0339 C   0  0  0  0  0  0  0  0  0  0  0  0
   -6.5001   11.8056  -10.7491 C   0  0  0  0  0  0  0  0  0  0  0  0
   -6.8506   12.3073  -14.3824 O   0  0  0  0  0  0  0  0  0  0  0  0
   -5.5377   13.6382  -12.2001 C   0  0  0  0  0  0  0  0  0  0  0  0
   -5.9500   14.5444  -12.9177 O   0  0  0  0  0  0  0  0  0  0  0  0
   -7.2308   10.6159  -10.6131 C   0  0  0  0  0  0  0  0  0  0  0  0
   -7.8083   10.0113  -11.7524 C   0  0  0  0  0  0  0  0  0  0  0  0
   -8.4200    8.8675  -11.2880 N   0  0  0  0  0  0  0  0  0  0  0  0
   -8.2847    8.7400   -9.9757 N   0  0  0  0  0  0  0  0  0  0  0  0
   -7.6047    9.7473   -9.5145 C   0  0  0  0  0  0  0  0  0  0  0  0
   -7.3264    9.8951   -8.0245 C   0  0  0  0  0  0  0  0  0  0  0  0
   -5.9604   10.4805   -7.7353 C   0  0  0  0  0  0  0  0  0  0  0  0
   -4.8075    9.7596   -8.0491 C   0  0  0  0  0  0  0  0  0  0  0  0
   -3.4358   11.5809   -7.2415 C   0  0  0  0  0  0  0  0  0  0  0  0
   -4.5835   12.3061   -6.9225 C   0  0  0  0  0  0  0  0  0  0  0  0
   -3.5481   10.3107   -7.8024 C   0  0  0  0  0  0  0  0  0  0  0  0
   -5.8471   11.7541   -7.1666 C   0  0  0  0  0  0  0  0  0  0  0  0
   -4.4650   13.6954   -6.3241 C   0  0  0  0  0  0  0  0  0  0  0  0
   -1.6558   12.5461  -10.1051 H   0  0  0  0  0  0  0  0  0  0  0  0
   -2.1418   14.8314   -9.9056 H   0  0  0  0  0  0  0  0  0  0  0  0
   -1.3273   14.8503  -11.5065 H   0  0  0  0  0  0  0  0  0  0  0  0
   -3.9292   11.6343  -11.3361 H   0  0  0  0  0  0  0  0  0  0  0  0
   -4.0052   12.5329   -9.7825 H   0  0  0  0  0  0  0  0  0  0  0  0
   -1.6986   11.5246  -12.1863 H   0  0  0  0  0  0  0  0  0  0  0  0
   -3.9654   15.7526  -11.0614 H   0  0  0  0  0  0  0  0  0  0  0  0
   -3.3451   15.2065  -12.6563 H   0  0  0  0  0  0  0  0  0  0  0  0
   -8.1726   10.1006  -13.8930 H   0  0  0  0  0  0  0  0  0  0  0  0
   -6.0607   12.2852   -9.8870 H   0  0  0  0  0  0  0  0  0  0  0  0
   -6.3117   10.0311  -10.7657 H   0  0  0  0  0  0  0  0  0  0  0  0
   -8.0295    9.6121   -7.2551 H   0  0  0  0  0  0  0  0  0  0  0  0
   -4.8892    8.7741   -8.4833 H   0  0  0  0  0  0  0  0  0  0  0  0
   -2.4600   12.0040   -7.0537 H   0  0  0  0  0  0  0  0  0  0  0  0
   -3.0270    9.6184   -7.1248 H   0  0  0  0  0  0  0  0  0  0  0  0
   -3.0225   10.3437   -8.7681 H   0  0  0  0  0  0  0  0  0  0  0  0
   -6.3717   12.4489   -7.8389 H   0  0  0  0  0  0  0  0  0  0  0  0
   -6.3685   11.7163   -6.1988 H   0  0  0  0  0  0  0  0  0  0  0  0
   -5.4700   14.1039   -6.1424 H   0  0  0  0  0  0  0  0  0  0  0  0
   -3.9148   13.6392   -5.3732 H   0  0  0  0  0  0  0  0  0  0  0  0
   -3.9239   14.3505   -7.0227 H   0  0  0  0  0  0  0  0  0  0  0  0
  1  2  1  0  0  0  0
  1  3  1  0  0  0  0
  1  4  1  0  0  0  0
  2  5  1  0  0  0  0
  3  6  1  0  0  0  0
  5  6  1  0  0  0  0
  6 12  1  0  0  0  0
  7  8  1  0  0  0  0
  7 10  2  0  0  0  0
  7 12  1  0  0  0  0
  8  9  1  0  0  0  0
  8 11  2  0  0  0  0
  9 15  2  0  0  0  0
 10 14  1  0  0  0  0
 12 13  2  0  0  0  0
 14 15  1  0  0  0  0
 14 18  1  0  0  0  0
 15 16  1  0  0  0  0
 16 17  2  0  0  0  0
 17 18  1  0  0  0  0
 18 19  2  0  0  0  0
 19 20  1  0  0  0  0
 20 21  2  0  0  0  0
 20 25  1  0  0  0  0
 21 24  1  0  0  0  0
 22 23  2  0  0  0  0
 22 24  1  0  0  0  0
 23 25  1  0  0  0  0
 23 26  1  0  0  0  0
  1 27  1  0  0  0  0
  2 28  1  0  0  0  0
  2 29  1  0  0  0  0
  3 30  1  0  0  0  0
  3 31  1  0  0  0  0
  4 32  1  0  0  0  0
  5 33  1  0  0  0  0
  5 34  1  0  0  0  0
  9 35  1  0  0  0  0
 10 36  1  0  0  0  0
 14 37  1  0  0  0  0
 19 38  1  0  0  0  0
 21 39  1  0  0  0  0
 22 40  1  0  0  0  0
 24 41  1  0  0  0  0
 24 42  1  0  0  0  0
 25 43  1  0  0  0  0
 25 44  1  0  0  0  0
 26 45  1  0  0  0  0
 26 46  1  0  0  0  0
 26 47  1  0  0  0  0
M  END
> <Name>
13

> <IC50[uM]>
0.006

$$$$
13
  -OEChem-05192314333D
 Structure written by MMmdl.
 47 50  0     1  0  0  0  0  0999 V2000
   -2.2088   12.9419  -10.9697 C   0  0  1  0  0  0  0  0  0  0  0  0
   -2.1904   14.4671  -10.9424 C   0  0  0  0  0  0  0  0  0  0  0  0
   -3.6992   12.5876  -10.8377 C   0  0  0  0  0  0  0  0  0  0  0  0
   -1.6826   12.4744  -12.1795 O   0  0  0  0  0  0  0  0  0  0  0  0
   -3.5107   14.9139  -11.6089 C   0  0  0  0  0  0  0  0  0  0  0  0
   -4.3443   13.7200  -11.5243 N   0  0  0  0  0  0  0  0  0  0  0  0
   -6.3525   12.3601  -12.0338 C   0  0  0  0  0  0  0  0  0  0  0  0
   -6.9727   11.7556  -13.1375 C   0  0  0  0  0  0  0  0  0  0  0  0
   -7.7097   10.5633  -13.0339 C   0  0  0  0  0  0  0  0  0  0  0  0
   -6.5001   11.8056  -10.7491 C   0  0  0  0  0  0  0  0  0  0  0  0
   -6.8506   12.3073  -14.3824 O   0  0  0  0  0  0  0  0  0  0  0  0
   -5.5377   13.6382  -12.2001 C   0  0  0  0  0  0  0  0  0  0  0  0
   -5.9500   14.5444  -12.9177 O   0  0  0  0  0  0  0  0  0  0  0  0
   -7.2308   10.6159  -10.6131 C   0  0  0  0  0  0  0  0  0  0  0  0
   -7.8083   10.0113  -11.7524 C   0  0  0  0  0  0  0  0  0  0  0  0
   -8.4200    8.8675  -11.2880 N   0  0  0  0  0  0  0  0  0  0  0  0
   -8.2847    8.7400   -9.9757 N   0  0  0  0  0  0  0  0  0  0  0  0
   -7.6047    9.7473   -9.5145 C   0  0  0  0  0  0  0  0  0  0  0  0
   -7.3264    9.8951   -8.0245 C   0  0  0  0  0  0  0  0  0  0  0  0
   -5.9604   10.4805   -7.7353 C   0  0  0  0  0  0  0  0  0  0  0  0
   -4.8075    9.7596   -8.0491 C   0  0  0  0  0  0  0  0  0  0  0  0
   -3.4358   11.5809   -7.2415 C   0  0  0  0  0  0  0  0  0  0  0  0
   -4.5835   12.3061   -6.9225 C   0  0  0  0  0  0  0  0  0  0  0  0
   -3.5481   10.3107   -7.8024 C   0  0  0  0  0  0  0  0  0  0  0  0
   -5.8471   11.7541   -7.1666 C   0  0  0  0  0  0  0  0  0  0  0  0
   -4.4650   13.6954   -6.3241 C   0  0  0  0  0  0  0  0  0  0  0  0
   -1.6558   12.5461  -10.1051 H   0  0  0  0  0  0  0  0  0  0  0  0
   -2.1418   14.8314   -9.9056 H   0  0  0  0  0  0  0  0  0  0  0  0
   -1.3273   14.8503  -11.5065 H   0  0  0  0  0  0  0  0  0  0  0  0
   -3.9292   11.6343  -11.3361 H   0  0  0  0  0  0  0  0  0  0  0  0
   -4.0052   12.5329   -9.7825 H   0  0  0  0  0  0  0  0  0  0  0  0
   -1.6986   11.5246  -12.1863 H   0  0  0  0  0  0  0  0  0  0  0  0
   -3.9654   15.7526  -11.0614 H   0  0  0  0  0  0  0  0  0  0  0  0
   -3.3451   15.2065  -12.6563 H   0  0  0  0  0  0  0  0  0  0  0  0
   -8.1726   10.1006  -13.8930 H   0  0  0  0  0  0  0  0  0  0  0  0
   -6.0607   12.2852   -9.8870 H   0  0  0  0  0  0  0  0  0  0  0  0
   -8.0295    9.6121   -7.2551 H   0  0  0  0  0  0  0  0  0  0  0  0
   -4.8582    8.8181   -7.4825 H   0  0  0  0  0  0  0  0  0  0  0  0
   -4.8529    9.5421   -9.1264 H   0  0  0  0  0  0  0  0  0  0  0  0
   -2.4600   12.0040   -7.0537 H   0  0  0  0  0  0  0  0  0  0  0  0
   -4.5836   11.8682   -5.9134 H   0  0  0  0  0  0  0  0  0  0  0  0
   -2.6581    9.7501   -8.0474 H   0  0  0  0  0  0  0  0  0  0  0  0
   -6.3717   12.4489   -7.8389 H   0  0  0  0  0  0  0  0  0  0  0  0
   -6.3685   11.7163   -6.1988 H   0  0  0  0  0  0  0  0  0  0  0  0
   -5.4700   14.1039   -6.1424 H   0  0  0  0  0  0  0  0  0  0  0  0
   -3.9148   13.6392   -5.3732 H   0  0  0  0  0  0  0  0  0  0  0  0
   -3.9239   14.3505   -7.0227 H   0  0  0  0  0  0  0  0  0  0  0  0
  1  2  1  0  0  0  0
  1  3  1  0  0  0  0
  1  4  1  0  0  0  0
  2  5  1  0  0  0  0
  3  6  1  0  0  0  0
  5  6  1  0  0  0  0
  6 12  1  0  0  0  0
  7  8  1  0  0  0  0
  7 10  2  0  0  0  0
  7 12  1  0  0  0  0
  8  9  1  0  0  0  0
  8 11  2  0  0  0  0
  9 15  2  0  0  0  0
 10 14  1  0  0  0  0
 12 13  2  0  0  0  0
 14 15  1  0  0  0  0
 14 18  2  0  0  0  0
 15 16  1  0  0  0  0
 16 17  2  0  0  0  0
 17 18  1  0  0  0  0
 18 19  1  0  0  0  0
 19 20  2  0  0  0  0
 20 21  1  0  0  0  0
 20 25  1  0  0  0  0
 21 24  1  0  0  0  0
 22 23  1  0  0  0  0
 22 24  2  0  0  0  0
 23 25  1  0  0  0  0
 23 26  1  0  0  0  0
  1 27  1  0  0  0  0
  2 28  1  0  0  0  0
  2 29  1  0  0  0  0
  3 30  1  0  0  0  0
  3 31  1  0  0  0  0
  4 32  1  0  0  0  0
  5 33  1  0  0  0  0
  5 34  1  0  0  0  0
  9 35  1  0  0  0  0
 10 36  1  0  0  0  0
 19 37  1  0  0  0  0
 21 38  1  0  0  0  0
 21 39  1  0  0  0  0
 22 40  1  0  0  0  0
 23 41  1  0  0  0  0
 24 42  1  0  0  0  0
 25 43  1  0  0  0  0
 25 44  1  0  0  0  0
 26 45  1  0  0  0  0
 26 46  1  0  0  0  0
 26 47  1  0  0  0  0
M  END
> <Name>
13

> <IC50[uM]>
0.006

$$$$
13
  -OEChem-05192314333D
 Structure written by MMmdl.
 47 50  0     1  0  0  0  0  0999 V2000
   -2.2088   12.9419  -10.9697 C   0  0  1  0  0  0  0  0  0  0  0  0
   -2.1904   14.4671  -10.9424 C   0  0  0  0  0  0  0  0  0  0  0  0
   -3.6992   12.5876  -10.8377 C   0  0  0  0  0  0  0  0  0  0  0  0
   -1.6826   12.4744  -12.1795 O   0  0  0  0  0  0  0  0  0  0  0  0
   -3.5107   14.9139  -11.6089 C   0  0  0  0  0  0  0  0  0  0  0  0
   -4.3443   13.7200  -11.5243 N   0  0  0  0  0  0  0  0  0  0  0  0
   -6.3525   12.3601  -12.0338 C   0  0  0  0  0  0  0  0  0  0  0  0
   -6.9727   11.7556  -13.1375 C   0  0  0  0  0  0  0  0  0  0  0  0
   -7.7097   10.5633  -13.0339 C   0  0  0  0  0  0  0  0  0  0  0  0
   -6.5001   11.8056  -10.7491 C   0  0  0  0  0  0  0  0  0  0  0  0
   -6.8506   12.3073  -14.3824 O   0  0  0  0  0  0  0  0  0  0  0  0
   -5.5377   13.6382  -12.2001 C   0  0  0  0  0  0  0  0  0  0  0  0
   -5.9500   14.5444  -12.9177 O   0  0  0  0  0  0  0  0  0  0  0  0
   -7.2308   10.6159  -10.6131 C   0  0  0  0  0  0  0  0  0  0  0  0
   -7.8083   10.0113  -11.7524 C   0  0  0  0  0  0  0  0  0  0  0  0
   -8.4200    8.8675  -11.2880 N   0  0  0  0  0  0  0  0  0  0  0  0
   -8.2847    8.7400   -9.9757 N   0  0  0  0  0  0  0  0  0  0  0  0
   -7.6047    9.7473   -9.5145 C   0  0  0  0  0  0  0  0  0  0  0  0
   -7.3264    9.8951   -8.0245 C   0  0  0  0  0  0  0  0  0  0  0  0
   -5.9604   10.4805   -7.7353 C   0  0  0  0  0  0  0  0  0  0  0  0
   -4.8075    9.7596   -8.0491 C   0  0  0  0  0  0  0  0  0  0  0  0
   -3.4358   11.5809   -7.2415 C   0  0  0  0  0  0  0  0  0  0  0  0
   -4.5835   12.3061   -6.9225 C   0  0  0  0  0  0  0  0  0  0  0  0
   -3.5481   10.3107   -7.8024 C   0  0  0  0  0  0  0  0  0  0  0  0
   -5.8471   11.7541   -7.1666 C   0  0  0  0  0  0  0  0  0  0  0  0
   -4.4650   13.6954   -6.3241 C   0  0  0  0  0  0  0  0  0  0  0  0
   -1.6558   12.5461  -10.1051 H   0  0  0  0  0  0  0  0  0  0  0  0
   -2.1418   14.8314   -9.9056 H   0  0  0  0  0  0  0  0  0  0  0  0
   -1.3273   14.8503  -11.5065 H   0  0  0  0  0  0  0  0  0  0  0  0
   -3.9292   11.6343  -11.3361 H   0  0  0  0  0  0  0  0  0  0  0  0
   -4.0052   12.5329   -9.7825 H   0  0  0  0  0  0  0  0  0  0  0  0
   -1.6986   11.5246  -12.1863 H   0  0  0  0  0  0  0  0  0  0  0  0
   -3.9654   15.7526  -11.0614 H   0  0  0  0  0  0  0  0  0  0  0  0
   -3.3451   15.2065  -12.6563 H   0  0  0  0  0  0  0  0  0  0  0  0
   -8.1726   10.1006  -13.8930 H   0  0  0  0  0  0  0  0  0  0  0  0
   -6.0607   12.2852   -9.8870 H   0  0  0  0  0  0  0  0  0  0  0  0
   -8.0295    9.6121   -7.2551 H   0  0  0  0  0  0  0  0  0  0  0  0
   -4.8582    8.8181   -7.4825 H   0  0  0  0  0  0  0  0  0  0  0  0
   -4.8529    9.5421   -9.1264 H   0  0  0  0  0  0  0  0  0  0  0  0
   -2.4600   12.0040   -7.0537 H   0  0  0  0  0  0  0  0  0  0  0  0
   -3.0270    9.6184   -7.1248 H   0  0  0  0  0  0  0  0  0  0  0  0
   -3.0225   10.3437   -8.7681 H   0  0  0  0  0  0  0  0  0  0  0  0
   -6.3717   12.4489   -7.8389 H   0  0  0  0  0  0  0  0  0  0  0  0
   -6.3685   11.7163   -6.1988 H   0  0  0  0  0  0  0  0  0  0  0  0
   -5.4700   14.1039   -6.1424 H   0  0  0  0  0  0  0  0  0  0  0  0
   -3.9148   13.6392   -5.3732 H   0  0  0  0  0  0  0  0  0  0  0  0
   -3.9239   14.3505   -7.0227 H   0  0  0  0  0  0  0  0  0  0  0  0
  1  2  1  0  0  0  0
  1  3  1  0  0  0  0
  1  4  1  0  0  0  0
  2  5  1  0  0  0  0
  3  6  1  0  0  0  0
  5  6  1  0  0  0  0
  6 12  1  0  0  0  0
  7  8  1  0  0  0  0
  7 10  2  0  0  0  0
  7 12  1  0  0  0  0
  8  9  1  0  0  0  0
  8 11  2  0  0  0  0
  9 15  2  0  0  0  0
 10 14  1  0  0  0  0
 12 13  2  0  0  0  0
 14 15  1  0  0  0  0
 14 18  2  0  0  0  0
 15 16  1  0  0  0  0
 16 17  2  0  0  0  0
 17 18  1  0  0  0  0
 18 19  1  0  0  0  0
 19 20  2  0  0  0  0
 20 21  1  0  0  0  0
 20 25  1  0  0  0  0
 21 24  1  0  0  0  0
 22 23  2  0  0  0  0
 22 24  1  0  0  0  0
 23 25  1  0  0  0  0
 23 26  1  0  0  0  0
  1 27  1  0  0  0  0
  2 28  1  0  0  0  0
  2 29  1  0  0  0  0
  3 30  1  0  0  0  0
  3 31  1  0  0  0  0
  4 32  1  0  0  0  0
  5 33  1  0  0  0  0
  5 34  1  0  0  0  0
  9 35  1  0  0  0  0
 10 36  1  0  0  0  0
 19 37  1  0  0  0  0
 21 38  1  0  0  0  0
 21 39  1  0  0  0  0
 22 40  1  0  0  0  0
 24 41  1  0  0  0  0
 24 42  1  0  0  0  0
 25 43  1  0  0  0  0
 25 44  1  0  0  0  0
 26 45  1  0  0  0  0
 26 46  1  0  0  0  0
 26 47  1  0  0  0  0
M  END
> <Name>
13

> <IC50[uM]>
0.006

$$$$
13
  -OEChem-05192314333D
 Structure written by MMmdl.
 47 50  0     1  0  0  0  0  0999 V2000
   -2.2088   12.9419  -10.9697 C   0  0  1  0  0  0  0  0  0  0  0  0
   -2.1904   14.4671  -10.9424 C   0  0  0  0  0  0  0  0  0  0  0  0
   -3.6992   12.5876  -10.8377 C   0  0  0  0  0  0  0  0  0  0  0  0
   -1.6826   12.4744  -12.1795 O   0  0  0  0  0  0  0  0  0  0  0  0
   -3.5107   14.9139  -11.6089 C   0  0  0  0  0  0  0  0  0  0  0  0
   -4.3443   13.7200  -11.5243 N   0  0  0  0  0  0  0  0  0  0  0  0
   -6.3525   12.3601  -12.0338 C   0  0  0  0  0  0  0  0  0  0  0  0
   -6.9727   11.7556  -13.1375 C   0  0  0  0  0  0  0  0  0  0  0  0
   -7.7097   10.5633  -13.0339 C   0  0  0  0  0  0  0  0  0  0  0  0
   -6.5001   11.8056  -10.7491 C   0  0  0  0  0  0  0  0  0  0  0  0
   -6.8506   12.3073  -14.3824 O   0  0  0  0  0  0  0  0  0  0  0  0
   -5.5377   13.6382  -12.2001 C   0  0  0  0  0  0  0  0  0  0  0  0
   -5.9500   14.5444  -12.9177 O   0  0  0  0  0  0  0  0  0  0  0  0
   -7.2308   10.6159  -10.6131 C   0  0  0  0  0  0  0  0  0  0  0  0
   -7.8083   10.0113  -11.7524 C   0  0  0  0  0  0  0  0  0  0  0  0
   -8.4200    8.8675  -11.2880 N   0  0  0  0  0  0  0  0  0  0  0  0
   -8.2847    8.7400   -9.9757 N   0  0  0  0  0  0  0  0  0  0  0  0
   -7.6047    9.7473   -9.5145 C   0  0  0  0  0  0  0  0  0  0  0  0
   -7.3264    9.8951   -8.0245 C   0  0  0  0  0  0  0  0  0  0  0  0
   -5.9604   10.4805   -7.7353 C   0  0  0  0  0  0  0  0  0  0  0  0
   -4.8075    9.7596   -8.0491 C   0  0  0  0  0  0  0  0  0  0  0  0
   -3.4358   11.5809   -7.2415 C   0  0  0  0  0  0  0  0  0  0  0  0
   -4.5835   12.3061   -6.9225 C   0  0  0  0  0  0  0  0  0  0  0  0
   -3.5481   10.3107   -7.8024 C   0  0  0  0  0  0  0  0  0  0  0  0
   -5.8471   11.7541   -7.1666 C   0  0  0  0  0  0  0  0  0  0  0  0
   -4.4650   13.6954   -6.3241 C   0  0  0  0  0  0  0  0  0  0  0  0
   -1.6558   12.5461  -10.1051 H   0  0  0  0  0  0  0  0  0  0  0  0
   -2.1418   14.8314   -9.9056 H   0  0  0  0  0  0  0  0  0  0  0  0
   -1.3273   14.8503  -11.5065 H   0  0  0  0  0  0  0  0  0  0  0  0
   -3.9292   11.6343  -11.3361 H   0  0  0  0  0  0  0  0  0  0  0  0
   -4.0052   12.5329   -9.7825 H   0  0  0  0  0  0  0  0  0  0  0  0
   -1.6986   11.5246  -12.1863 H   0  0  0  0  0  0  0  0  0  0  0  0
   -3.9654   15.7526  -11.0614 H   0  0  0  0  0  0  0  0  0  0  0  0
   -3.3451   15.2065  -12.6563 H   0  0  0  0  0  0  0  0  0  0  0  0
   -8.1726   10.1006  -13.8930 H   0  0  0  0  0  0  0  0  0  0  0  0
   -6.0607   12.2852   -9.8870 H   0  0  0  0  0  0  0  0  0  0  0  0
   -8.0295    9.6121   -7.2551 H   0  0  0  0  0  0  0  0  0  0  0  0
   -4.8892    8.7741   -8.4833 H   0  0  0  0  0  0  0  0  0  0  0  0
   -2.8612   12.1924   -7.9527 H   0  0  0  0  0  0  0  0  0  0  0  0
   -2.8628   11.4670   -6.3094 H   0  0  0  0  0  0  0  0  0  0  0  0
   -4.5836   11.8682   -5.9134 H   0  0  0  0  0  0  0  0  0  0  0  0
   -2.6581    9.7501   -8.0474 H   0  0  0  0  0  0  0  0  0  0  0  0
   -6.3717   12.4489   -7.8389 H   0  0  0  0  0  0  0  0  0  0  0  0
   -6.3685   11.7163   -6.1988 H   0  0  0  0  0  0  0  0  0  0  0  0
   -5.4700   14.1039   -6.1424 H   0  0  0  0  0  0  0  0  0  0  0  0
   -3.9148   13.6392   -5.3732 H   0  0  0  0  0  0  0  0  0  0  0  0
   -3.9239   14.3505   -7.0227 H   0  0  0  0  0  0  0  0  0  0  0  0
  1  2  1  0  0  0  0
  1  3  1  0  0  0  0
  1  4  1  0  0  0  0
  2  5  1  0  0  0  0
  3  6  1  0  0  0  0
  5  6  1  0  0  0  0
  6 12  1  0  0  0  0
  7  8  1  0  0  0  0
  7 10  2  0  0  0  0
  7 12  1  0  0  0  0
  8  9  1  0  0  0  0
  8 11  2  0  0  0  0
  9 15  2  0  0  0  0
 10 14  1  0  0  0  0
 12 13  2  0  0  0  0
 14 15  1  0  0  0  0
 14 18  2  0  0  0  0
 15 16  1  0  0  0  0
 16 17  2  0  0  0  0
 17 18  1  0  0  0  0
 18 19  1  0  0  0  0
 19 20  2  0  0  0  0
 20 21  1  0  0  0  0
 20 25  1  0  0  0  0
 21 24  2  0  0  0  0
 22 23  1  0  0  0  0
 22 24  1  0  0  0  0
 23 25  1  0  0  0  0
 23 26  1  0  0  0  0
  1 27  1  0  0  0  0
  2 28  1  0  0  0  0
  2 29  1  0  0  0  0
  3 30  1  0  0  0  0
  3 31  1  0  0  0  0
  4 32  1  0  0  0  0
  5 33  1  0  0  0  0
  5 34  1  0  0  0  0
  9 35  1  0  0  0  0
 10 36  1  0  0  0  0
 19 37  1  0  0  0  0
 21 38  1  0  0  0  0
 22 39  1  0  0  0  0
 22 40  1  0  0  0  0
 23 41  1  0  0  0  0
 24 42  1  0  0  0  0
 25 43  1  0  0  0  0
 25 44  1  0  0  0  0
 26 45  1  0  0  0  0
 26 46  1  0  0  0  0
 26 47  1  0  0  0  0
M  END
> <Name>
13

> <IC50[uM]>
0.006

$$$$
13
  -OEChem-05192314333D
 Structure written by MMmdl.
 47 50  0     1  0  0  0  0  0999 V2000
   -2.2088   12.9419  -10.9697 C   0  0  1  0  0  0  0  0  0  0  0  0
   -2.1904   14.4671  -10.9424 C   0  0  0  0  0  0  0  0  0  0  0  0
   -3.6992   12.5876  -10.8377 C   0  0  0  0  0  0  0  0  0  0  0  0
   -1.6826   12.4744  -12.1795 O   0  0  0  0  0  0  0  0  0  0  0  0
   -3.5107   14.9139  -11.6089 C   0  0  0  0  0  0  0  0  0  0  0  0
   -4.3443   13.7200  -11.5243 N   0  0  0  0  0  0  0  0  0  0  0  0
   -6.3525   12.3601  -12.0338 C   0  0  0  0  0  0  0  0  0  0  0  0
   -6.9727   11.7556  -13.1375 C   0  0  0  0  0  0  0  0  0  0  0  0
   -7.7097   10.5633  -13.0339 C   0  0  0  0  0  0  0  0  0  0  0  0
   -6.5001   11.8056  -10.7491 C   0  0  0  0  0  0  0  0  0  0  0  0
   -6.8506   12.3073  -14.3824 O   0  0  0  0  0  0  0  0  0  0  0  0
   -5.5377   13.6382  -12.2001 C   0  0  0  0  0  0  0  0  0  0  0  0
   -5.9500   14.5444  -12.9177 O   0  0  0  0  0  0  0  0  0  0  0  0
   -7.2308   10.6159  -10.6131 C   0  0  0  0  0  0  0  0  0  0  0  0
   -7.8083   10.0113  -11.7524 C   0  0  0  0  0  0  0  0  0  0  0  0
   -8.4200    8.8675  -11.2880 N   0  0  0  0  0  0  0  0  0  0  0  0
   -8.2847    8.7400   -9.9757 N   0  0  0  0  0  0  0  0  0  0  0  0
   -7.6047    9.7473   -9.5145 C   0  0  0  0  0  0  0  0  0  0  0  0
   -7.3264    9.8951   -8.0245 C   0  0  0  0  0  0  0  0  0  0  0  0
   -5.9604   10.4805   -7.7353 C   0  0  0  0  0  0  0  0  0  0  0  0
   -4.8075    9.7596   -8.0491 C   0  0  0  0  0  0  0  0  0  0  0  0
   -3.4358   11.5809   -7.2415 C   0  0  0  0  0  0  0  0  0  0  0  0
   -4.5835   12.3061   -6.9225 C   0  0  0  0  0  0  0  0  0  0  0  0
   -3.5481   10.3107   -7.8024 C   0  0  0  0  0  0  0  0  0  0  0  0
   -5.8471   11.7541   -7.1666 C   0  0  0  0  0  0  0  0  0  0  0  0
   -4.4650   13.6954   -6.3241 C   0  0  0  0  0  0  0  0  0  0  0  0
   -1.6558   12.5461  -10.1051 H   0  0  0  0  0  0  0  0  0  0  0  0
   -2.1418   14.8314   -9.9056 H   0  0  0  0  0  0  0  0  0  0  0  0
   -1.3273   14.8503  -11.5065 H   0  0  0  0  0  0  0  0  0  0  0  0
   -3.9292   11.6343  -11.3361 H   0  0  0  0  0  0  0  0  0  0  0  0
   -4.0052   12.5329   -9.7825 H   0  0  0  0  0  0  0  0  0  0  0  0
   -1.6986   11.5246  -12.1863 H   0  0  0  0  0  0  0  0  0  0  0  0
   -3.9654   15.7526  -11.0614 H   0  0  0  0  0  0  0  0  0  0  0  0
   -3.3451   15.2065  -12.6563 H   0  0  0  0  0  0  0  0  0  0  0  0
   -8.7298   10.7663  -13.3920 H   0  0  0  0  0  0  0  0  0  0  0  0
   -7.2340    9.8162  -13.6862 H   0  0  0  0  0  0  0  0  0  0  0  0
   -6.0607   12.2852   -9.8870 H   0  0  0  0  0  0  0  0  0  0  0  0
   -8.0295    9.6121   -7.2551 H   0  0  0  0  0  0  0  0  0  0  0  0
   -4.8892    8.7741   -8.4833 H   0  0  0  0  0  0  0  0  0  0  0  0
   -2.4600   12.0040   -7.0537 H   0  0  0  0  0  0  0  0  0  0  0  0
   -4.5836   11.8682   -5.9134 H   0  0  0  0  0  0  0  0  0  0  0  0
   -2.6581    9.7501   -8.0474 H   0  0  0  0  0  0  0  0  0  0  0  0
   -6.3717   12.4489   -7.8389 H   0  0  0  0  0  0  0  0  0  0  0  0
   -6.3685   11.7163   -6.1988 H   0  0  0  0  0  0  0  0  0  0  0  0
   -5.4700   14.1039   -6.1424 H   0  0  0  0  0  0  0  0  0  0  0  0
   -3.9148   13.6392   -5.3732 H   0  0  0  0  0  0  0  0  0  0  0  0
   -3.9239   14.3505   -7.0227 H   0  0  0  0  0  0  0  0  0  0  0  0
  1  2  1  0  0  0  0
  1  3  1  0  0  0  0
  1  4  1  0  0  0  0
  2  5  1  0  0  0  0
  3  6  1  0  0  0  0
  5  6  1  0  0  0  0
  6 12  1  0  0  0  0
  7  8  1  0  0  0  0
  7 10  2  0  0  0  0
  7 12  1  0  0  0  0
  8  9  1  0  0  0  0
  8 11  2  0  0  0  0
  9 15  1  0  0  0  0
 10 14  1  0  0  0  0
 12 13  2  0  0  0  0
 14 15  2  0  0  0  0
 14 18  1  0  0  0  0
 15 16  1  0  0  0  0
 16 17  2  0  0  0  0
 17 18  1  0  0  0  0
 18 19  2  0  0  0  0
 19 20  1  0  0  0  0
 20 21  2  0  0  0  0
 20 25  1  0  0  0  0
 21 24  1  0  0  0  0
 22 23  1  0  0  0  0
 22 24  2  0  0  0  0
 23 25  1  0  0  0  0
 23 26  1  0  0  0  0
  1 27  1  0  0  0  0
  2 28  1  0  0  0  0
  2 29  1  0  0  0  0
  3 30  1  0  0  0  0
  3 31  1  0  0  0  0
  4 32  1  0  0  0  0
  5 33  1  0  0  0  0
  5 34  1  0  0  0  0
  9 35  1  0  0  0  0
  9 36  1  0  0  0  0
 10 37  1  0  0  0  0
 19 38  1  0  0  0  0
 21 39  1  0  0  0  0
 22 40  1  0  0  0  0
 23 41  1  0  0  0  0
 24 42  1  0  0  0  0
 25 43  1  0  0  0  0
 25 44  1  0  0  0  0
 26 45  1  0  0  0  0
 26 46  1  0  0  0  0
 26 47  1  0  0  0  0
M  END
> <Name>
13

> <IC50[uM]>
0.006

$$$$
13
  -OEChem-05192314333D
 Structure written by MMmdl.
 47 50  0     1  0  0  0  0  0999 V2000
   -2.2088   12.9419  -10.9697 C   0  0  1  0  0  0  0  0  0  0  0  0
   -2.1904   14.4671  -10.9424 C   0  0  0  0  0  0  0  0  0  0  0  0
   -3.6992   12.5876  -10.8377 C   0  0  0  0  0  0  0  0  0  0  0  0
   -1.6826   12.4744  -12.1795 O   0  0  0  0  0  0  0  0  0  0  0  0
   -3.5107   14.9139  -11.6089 C   0  0  0  0  0  0  0  0  0  0  0  0
   -4.3443   13.7200  -11.5243 N   0  0  0  0  0  0  0  0  0  0  0  0
   -6.3525   12.3601  -12.0338 C   0  0  0  0  0  0  0  0  0  0  0  0
   -6.9727   11.7556  -13.1375 C   0  0  0  0  0  0  0  0  0  0  0  0
   -7.7097   10.5633  -13.0339 C   0  0  0  0  0  0  0  0  0  0  0  0
   -6.5001   11.8056  -10.7491 C   0  0  0  0  0  0  0  0  0  0  0  0
   -6.8506   12.3073  -14.3824 O   0  0  0  0  0  0  0  0  0  0  0  0
   -5.5377   13.6382  -12.2001 C   0  0  0  0  0  0  0  0  0  0  0  0
   -5.9500   14.5444  -12.9177 O   0  0  0  0  0  0  0  0  0  0  0  0
   -7.2308   10.6159  -10.6131 C   0  0  0  0  0  0  0  0  0  0  0  0
   -7.8083   10.0113  -11.7524 C   0  0  0  0  0  0  0  0  0  0  0  0
   -8.4200    8.8675  -11.2880 N   0  0  0  0  0  0  0  0  0  0  0  0
   -8.2847    8.7400   -9.9757 N   0  0  0  0  0  0  0  0  0  0  0  0
   -7.6047    9.7473   -9.5145 C   0  0  0  0  0  0  0  0  0  0  0  0
   -7.3264    9.8951   -8.0245 C   0  0  0  0  0  0  0  0  0  0  0  0
   -5.9604   10.4805   -7.7353 C   0  0  0  0  0  0  0  0  0  0  0  0
   -4.8075    9.7596   -8.0491 C   0  0  0  0  0  0  0  0  0  0  0  0
   -3.4358   11.5809   -7.2415 C   0  0  0  0  0  0  0  0  0  0  0  0
   -4.5835   12.3061   -6.9225 C   0  0  0  0  0  0  0  0  0  0  0  0
   -3.5481   10.3107   -7.8024 C   0  0  0  0  0  0  0  0  0  0  0  0
   -5.8471   11.7541   -7.1666 C   0  0  0  0  0  0  0  0  0  0  0  0
   -4.4650   13.6954   -6.3241 C   0  0  0  0  0  0  0  0  0  0  0  0
   -1.6558   12.5461  -10.1051 H   0  0  0  0  0  0  0  0  0  0  0  0
   -2.1418   14.8314   -9.9056 H   0  0  0  0  0  0  0  0  0  0  0  0
   -1.3273   14.8503  -11.5065 H   0  0  0  0  0  0  0  0  0  0  0  0
   -3.9292   11.6343  -11.3361 H   0  0  0  0  0  0  0  0  0  0  0  0
   -4.0052   12.5329   -9.7825 H   0  0  0  0  0  0  0  0  0  0  0  0
   -1.6986   11.5246  -12.1863 H   0  0  0  0  0  0  0  0  0  0  0  0
   -3.9654   15.7526  -11.0614 H   0  0  0  0  0  0  0  0  0  0  0  0
   -3.3451   15.2065  -12.6563 H   0  0  0  0  0  0  0  0  0  0  0  0
   -8.7298   10.7663  -13.3920 H   0  0  0  0  0  0  0  0  0  0  0  0
   -7.2340    9.8162  -13.6862 H   0  0  0  0  0  0  0  0  0  0  0  0
   -6.0607   12.2852   -9.8870 H   0  0  0  0  0  0  0  0  0  0  0  0
   -8.0295    9.6121   -7.2551 H   0  0  0  0  0  0  0  0  0  0  0  0
   -5.9749   10.0291   -6.7323 H   0  0  0  0  0  0  0  0  0  0  0  0
   -4.8892    8.7741   -8.4833 H   0  0  0  0  0  0  0  0  0  0  0  0
   -2.4600   12.0040   -7.0537 H   0  0  0  0  0  0  0  0  0  0  0  0
   -2.6581    9.7501   -8.0474 H   0  0  0  0  0  0  0  0  0  0  0  0
   -6.3717   12.4489   -7.8389 H   0  0  0  0  0  0  0  0  0  0  0  0
   -6.3685   11.7163   -6.1988 H   0  0  0  0  0  0  0  0  0  0  0  0
   -5.4700   14.1039   -6.1424 H   0  0  0  0  0  0  0  0  0  0  0  0
   -3.9148   13.6392   -5.3732 H   0  0  0  0  0  0  0  0  0  0  0  0
   -3.9239   14.3505   -7.0227 H   0  0  0  0  0  0  0  0  0  0  0  0
  1  2  1  0  0  0  0
  1  3  1  0  0  0  0
  1  4  1  0  0  0  0
  2  5  1  0  0  0  0
  3  6  1  0  0  0  0
  5  6  1  0  0  0  0
  6 12  1  0  0  0  0
  7  8  1  0  0  0  0
  7 10  2  0  0  0  0
  7 12  1  0  0  0  0
  8  9  1  0  0  0  0
  8 11  2  0  0  0  0
  9 15  1  0  0  0  0
 10 14  1  0  0  0  0
 12 13  2  0  0  0  0
 14 15  2  0  0  0  0
 14 18  1  0  0  0  0
 15 16  1  0  0  0  0
 16 17  2  0  0  0  0
 17 18  1  0  0  0  0
 18 19  2  0  0  0  0
 19 20  1  0  0  0  0
 20 21  1  0  0  0  0
 20 25  1  0  0  0  0
 21 24  2  0  0  0  0
 22 23  2  0  0  0  0
 22 24  1  0  0  0  0
 23 25  1  0  0  0  0
 23 26  1  0  0  0  0
  1 27  1  0  0  0  0
  2 28  1  0  0  0  0
  2 29  1  0  0  0  0
  3 30  1  0  0  0  0
  3 31  1  0  0  0  0
  4 32  1  0  0  0  0
  5 33  1  0  0  0  0
  5 34  1  0  0  0  0
  9 35  1  0  0  0  0
  9 36  1  0  0  0  0
 10 37  1  0  0  0  0
 19 38  1  0  0  0  0
 20 39  1  0  0  0  0
 21 40  1  0  0  0  0
 22 41  1  0  0  0  0
 24 42  1  0  0  0  0
 25 43  1  0  0  0  0
 25 44  1  0  0  0  0
 26 45  1  0  0  0  0
 26 46  1  0  0  0  0
 26 47  1  0  0  0  0
M  END
> <Name>
13

> <IC50[uM]>
0.006

$$$$
13
  -OEChem-05192314333D
 Structure written by MMmdl.
 47 50  0     1  0  0  0  0  0999 V2000
   -2.2088   12.9419  -10.9697 C   0  0  1  0  0  0  0  0  0  0  0  0
   -2.1904   14.4671  -10.9424 C   0  0  0  0  0  0  0  0  0  0  0  0
   -3.6992   12.5876  -10.8377 C   0  0  0  0  0  0  0  0  0  0  0  0
   -1.6826   12.4744  -12.1795 O   0  0  0  0  0  0  0  0  0  0  0  0
   -3.5107   14.9139  -11.6089 C   0  0  0  0  0  0  0  0  0  0  0  0
   -4.3443   13.7200  -11.5243 N   0  0  0  0  0  0  0  0  0  0  0  0
   -6.3525   12.3601  -12.0338 C   0  0  0  0  0  0  0  0  0  0  0  0
   -6.9727   11.7556  -13.1375 C   0  0  0  0  0  0  0  0  0  0  0  0
   -7.7097   10.5633  -13.0339 C   0  0  0  0  0  0  0  0  0  0  0  0
   -6.5001   11.8056  -10.7491 C   0  0  0  0  0  0  0  0  0  0  0  0
   -6.8506   12.3073  -14.3824 O   0  0  0  0  0  0  0  0  0  0  0  0
   -5.5377   13.6382  -12.2001 C   0  0  0  0  0  0  0  0  0  0  0  0
   -5.9500   14.5444  -12.9177 O   0  0  0  0  0  0  0  0  0  0  0  0
   -7.2308   10.6159  -10.6131 C   0  0  0  0  0  0  0  0  0  0  0  0
   -7.8083   10.0113  -11.7524 C   0  0  0  0  0  0  0  0  0  0  0  0
   -8.4200    8.8675  -11.2880 N   0  0  0  0  0  0  0  0  0  0  0  0
   -8.2847    8.7400   -9.9757 N   0  0  0  0  0  0  0  0  0  0  0  0
   -7.6047    9.7473   -9.5145 C   0  0  0  0  0  0  0  0  0  0  0  0
   -7.3264    9.8951   -8.0245 C   0  0  0  0  0  0  0  0  0  0  0  0
   -5.9604   10.4805   -7.7353 C   0  0  0  0  0  0  0  0  0  0  0  0
   -4.8075    9.7596   -8.0491 C   0  0  0  0  0  0  0  0  0  0  0  0
   -3.4358   11.5809   -7.2415 C   0  0  0  0  0  0  0  0  0  0  0  0
   -4.5835   12.3061   -6.9225 C   0  0  0  0  0  0  0  0  0  0  0  0
   -3.5481   10.3107   -7.8024 C   0  0  0  0  0  0  0  0  0  0  0  0
   -5.8471   11.7541   -7.1666 C   0  0  0  0  0  0  0  0  0  0  0  0
   -4.4650   13.6954   -6.3241 C   0  0  0  0  0  0  0  0  0  0  0  0
   -1.6558   12.5461  -10.1051 H   0  0  0  0  0  0  0  0  0  0  0  0
   -2.1418   14.8314   -9.9056 H   0  0  0  0  0  0  0  0  0  0  0  0
   -1.3273   14.8503  -11.5065 H   0  0  0  0  0  0  0  0  0  0  0  0
   -3.9292   11.6343  -11.3361 H   0  0  0  0  0  0  0  0  0  0  0  0
   -4.0052   12.5329   -9.7825 H   0  0  0  0  0  0  0  0  0  0  0  0
   -1.6986   11.5246  -12.1863 H   0  0  0  0  0  0  0  0  0  0  0  0
   -3.9654   15.7526  -11.0614 H   0  0  0  0  0  0  0  0  0  0  0  0
   -3.3451   15.2065  -12.6563 H   0  0  0  0  0  0  0  0  0  0  0  0
   -8.7298   10.7663  -13.3920 H   0  0  0  0  0  0  0  0  0  0  0  0
   -7.2340    9.8162  -13.6862 H   0  0  0  0  0  0  0  0  0  0  0  0
   -6.0607   12.2852   -9.8870 H   0  0  0  0  0  0  0  0  0  0  0  0
   -6.6702    9.1804   -9.6379 H   0  0  0  0  0  0  0  0  0  0  0  0
   -8.0295    9.6121   -7.2551 H   0  0  0  0  0  0  0  0  0  0  0  0
   -4.8892    8.7741   -8.4833 H   0  0  0  0  0  0  0  0  0  0  0  0
   -2.4600   12.0040   -7.0537 H   0  0  0  0  0  0  0  0  0  0  0  0
   -2.6581    9.7501   -8.0474 H   0  0  0  0  0  0  0  0  0  0  0  0
   -6.3717   12.4489   -7.8389 H   0  0  0  0  0  0  0  0  0  0  0  0
   -6.3685   11.7163   -6.1988 H   0  0  0  0  0  0  0  0  0  0  0  0
   -5.4700   14.1039   -6.1424 H   0  0  0  0  0  0  0  0  0  0  0  0
   -3.9148   13.6392   -5.3732 H   0  0  0  0  0  0  0  0  0  0  0  0
   -3.9239   14.3505   -7.0227 H   0  0  0  0  0  0  0  0  0  0  0  0
  1  2  1  0  0  0  0
  1  3  1  0  0  0  0
  1  4  1  0  0  0  0
  2  5  1  0  0  0  0
  3  6  1  0  0  0  0
  5  6  1  0  0  0  0
  6 12  1  0  0  0  0
  7  8  1  0  0  0  0
  7 10  2  0  0  0  0
  7 12  1  0  0  0  0
  8  9  1  0  0  0  0
  8 11  2  0  0  0  0
  9 15  1  0  0  0  0
 10 14  1  0  0  0  0
 12 13  2  0  0  0  0
 14 15  2  0  0  0  0
 14 18  1  0  0  0  0
 15 16  1  0  0  0  0
 16 17  2  0  0  0  0
 17 18  1  0  0  0  0
 18 19  1  0  0  0  0
 19 20  2  0  0  0  0
 20 21  1  0  0  0  0
 20 25  1  0  0  0  0
 21 24  2  0  0  0  0
 22 23  2  0  0  0  0
 22 24  1  0  0  0  0
 23 25  1  0  0  0  0
 23 26  1  0  0  0  0
  1 27  1  0  0  0  0
  2 28  1  0  0  0  0
  2 29  1  0  0  0  0
  3 30  1  0  0  0  0
  3 31  1  0  0  0  0
  4 32  1  0  0  0  0
  5 33  1  0  0  0  0
  5 34  1  0  0  0  0
  9 35  1  0  0  0  0
  9 36  1  0  0  0  0
 10 37  1  0  0  0  0
 18 38  1  0  0  0  0
 19 39  1  0  0  0  0
 21 40  1  0  0  0  0
 22 41  1  0  0  0  0
 24 42  1  0  0  0  0
 25 43  1  0  0  0  0
 25 44  1  0  0  0  0
 26 45  1  0  0  0  0
 26 46  1  0  0  0  0
 26 47  1  0  0  0  0
M  END
> <Name>
13

> <IC50[uM]>
0.006

$$$$
13
  -OEChem-05192314333D
 Structure written by MMmdl.
 47 50  0     1  0  0  0  0  0999 V2000
   -2.2088   12.9419  -10.9697 C   0  0  1  0  0  0  0  0  0  0  0  0
   -2.1904   14.4671  -10.9424 C   0  0  0  0  0  0  0  0  0  0  0  0
   -3.6992   12.5876  -10.8377 C   0  0  0  0  0  0  0  0  0  0  0  0
   -1.6826   12.4744  -12.1795 O   0  0  0  0  0  0  0  0  0  0  0  0
   -3.5107   14.9139  -11.6089 C   0  0  0  0  0  0  0  0  0  0  0  0
   -4.3443   13.7200  -11.5243 N   0  0  0  0  0  0  0  0  0  0  0  0
   -6.3525   12.3601  -12.0338 C   0  0  0  0  0  0  0  0  0  0  0  0
   -6.9727   11.7556  -13.1375 C   0  0  0  0  0  0  0  0  0  0  0  0
   -7.7097   10.5633  -13.0339 C   0  0  0  0  0  0  0  0  0  0  0  0
   -6.5001   11.8056  -10.7491 C   0  0  0  0  0  0  0  0  0  0  0  0
   -6.8506   12.3073  -14.3824 O   0  0  0  0  0  0  0  0  0  0  0  0
   -5.5377   13.6382  -12.2001 C   0  0  0  0  0  0  0  0  0  0  0  0
   -5.9500   14.5444  -12.9177 O   0  0  0  0  0  0  0  0  0  0  0  0
   -7.2308   10.6159  -10.6131 C   0  0  0  0  0  0  0  0  0  0  0  0
   -7.8083   10.0113  -11.7524 C   0  0  0  0  0  0  0  0  0  0  0  0
   -8.4200    8.8675  -11.2880 N   0  0  0  0  0  0  0  0  0  0  0  0
   -8.2847    8.7400   -9.9757 N   0  0  0  0  0  0  0  0  0  0  0  0
   -7.6047    9.7473   -9.5145 C   0  0  0  0  0  0  0  0  0  0  0  0
   -7.3264    9.8951   -8.0245 C   0  0  0  0  0  0  0  0  0  0  0  0
   -5.9604   10.4805   -7.7353 C   0  0  0  0  0  0  0  0  0  0  0  0
   -4.8075    9.7596   -8.0491 C   0  0  0  0  0  0  0  0  0  0  0  0
   -3.4358   11.5809   -7.2415 C   0  0  0  0  0  0  0  0  0  0  0  0
   -4.5835   12.3061   -6.9225 C   0  0  0  0  0  0  0  0  0  0  0  0
   -3.5481   10.3107   -7.8024 C   0  0  0  0  0  0  0  0  0  0  0  0
   -5.8471   11.7541   -7.1666 C   0  0  0  0  0  0  0  0  0  0  0  0
   -4.4650   13.6954   -6.3241 C   0  0  0  0  0  0  0  0  0  0  0  0
   -1.6558   12.5461  -10.1051 H   0  0  0  0  0  0  0  0  0  0  0  0
   -2.1418   14.8314   -9.9056 H   0  0  0  0  0  0  0  0  0  0  0  0
   -1.3273   14.8503  -11.5065 H   0  0  0  0  0  0  0  0  0  0  0  0
   -3.9292   11.6343  -11.3361 H   0  0  0  0  0  0  0  0  0  0  0  0
   -4.0052   12.5329   -9.7825 H   0  0  0  0  0  0  0  0  0  0  0  0
   -1.6986   11.5246  -12.1863 H   0  0  0  0  0  0  0  0  0  0  0  0
   -3.9654   15.7526  -11.0614 H   0  0  0  0  0  0  0  0  0  0  0  0
   -3.3451   15.2065  -12.6563 H   0  0  0  0  0  0  0  0  0  0  0  0
   -8.7298   10.7663  -13.3920 H   0  0  0  0  0  0  0  0  0  0  0  0
   -7.2340    9.8162  -13.6862 H   0  0  0  0  0  0  0  0  0  0  0  0
   -6.0607   12.2852   -9.8870 H   0  0  0  0  0  0  0  0  0  0  0  0
   -6.8802    9.4462  -11.9237 H   0  0  0  0  0  0  0  0  0  0  0  0
   -8.0295    9.6121   -7.2551 H   0  0  0  0  0  0  0  0  0  0  0  0
   -4.8892    8.7741   -8.4833 H   0  0  0  0  0  0  0  0  0  0  0  0
   -2.4600   12.0040   -7.0537 H   0  0  0  0  0  0  0  0  0  0  0  0
   -2.6581    9.7501   -8.0474 H   0  0  0  0  0  0  0  0  0  0  0  0
   -6.3717   12.4489   -7.8389 H   0  0  0  0  0  0  0  0  0  0  0  0
   -6.3685   11.7163   -6.1988 H   0  0  0  0  0  0  0  0  0  0  0  0
   -5.4700   14.1039   -6.1424 H   0  0  0  0  0  0  0  0  0  0  0  0
   -3.9148   13.6392   -5.3732 H   0  0  0  0  0  0  0  0  0  0  0  0
   -3.9239   14.3505   -7.0227 H   0  0  0  0  0  0  0  0  0  0  0  0
  1  2  1  0  0  0  0
  1  3  1  0  0  0  0
  1  4  1  0  0  0  0
  2  5  1  0  0  0  0
  3  6  1  0  0  0  0
  5  6  1  0  0  0  0
  6 12  1  0  0  0  0
  7  8  1  0  0  0  0
  7 10  2  0  0  0  0
  7 12  1  0  0  0  0
  8  9  1  0  0  0  0
  8 11  2  0  0  0  0
  9 15  1  0  0  0  0
 10 14  1  0  0  0  0
 12 13  2  0  0  0  0
 14 15  1  0  0  0  0
 14 18  2  0  0  0  0
 15 16  1  0  0  0  0
 16 17  2  0  0  0  0
 17 18  1  0  0  0  0
 18 19  1  0  0  0  0
 19 20  2  0  0  0  0
 20 21  1  0  0  0  0
 20 25  1  0  0  0  0
 21 24  2  0  0  0  0
 22 23  2  0  0  0  0
 22 24  1  0  0  0  0
 23 25  1  0  0  0  0
 23 26  1  0  0  0  0
  1 27  1  0  0  0  0
  2 28  1  0  0  0  0
  2 29  1  0  0  0  0
  3 30  1  0  0  0  0
  3 31  1  0  0  0  0
  4 32  1  0  0  0  0
  5 33  1  0  0  0  0
  5 34  1  0  0  0  0
  9 35  1  0  0  0  0
  9 36  1  0  0  0  0
 10 37  1  0  0  0  0
 15 38  1  0  0  0  0
 19 39  1  0  0  0  0
 21 40  1  0  0  0  0
 22 41  1  0  0  0  0
 24 42  1  0  0  0  0
 25 43  1  0  0  0  0
 25 44  1  0  0  0  0
 26 45  1  0  0  0  0
 26 46  1  0  0  0  0
 26 47  1  0  0  0  0
M  END
> <Name>
13

> <IC50[uM]>
0.006

$$$$
13
  -OEChem-05192314333D
 Structure written by MMmdl.
 47 50  0     1  0  0  0  0  0999 V2000
   -2.2088   12.9419  -10.9697 C   0  0  1  0  0  0  0  0  0  0  0  0
   -2.1904   14.4671  -10.9424 C   0  0  0  0  0  0  0  0  0  0  0  0
   -3.6992   12.5876  -10.8377 C   0  0  0  0  0  0  0  0  0  0  0  0
   -1.6826   12.4744  -12.1795 O   0  0  0  0  0  0  0  0  0  0  0  0
   -3.5107   14.9139  -11.6089 C   0  0  0  0  0  0  0  0  0  0  0  0
   -4.3443   13.7200  -11.5243 N   0  0  0  0  0  0  0  0  0  0  0  0
   -6.3525   12.3601  -12.0338 C   0  0  0  0  0  0  0  0  0  0  0  0
   -6.9727   11.7556  -13.1375 C   0  0  0  0  0  0  0  0  0  0  0  0
   -7.7097   10.5633  -13.0339 C   0  0  0  0  0  0  0  0  0  0  0  0
   -6.5001   11.8056  -10.7491 C   0  0  0  0  0  0  0  0  0  0  0  0
   -6.8506   12.3073  -14.3824 O   0  0  0  0  0  0  0  0  0  0  0  0
   -5.5377   13.6382  -12.2001 C   0  0  0  0  0  0  0  0  0  0  0  0
   -5.9500   14.5444  -12.9177 O   0  0  0  0  0  0  0  0  0  0  0  0
   -7.2308   10.6159  -10.6131 C   0  0  0  0  0  0  0  0  0  0  0  0
   -7.8083   10.0113  -11.7524 C   0  0  0  0  0  0  0  0  0  0  0  0
   -8.4200    8.8675  -11.2880 N   0  0  0  0  0  0  0  0  0  0  0  0
   -8.2847    8.7400   -9.9757 N   0  0  0  0  0  0  0  0  0  0  0  0
   -7.6047    9.7473   -9.5145 C   0  0  0  0  0  0  0  0  0  0  0  0
   -7.3264    9.8951   -8.0245 C   0  0  0  0  0  0  0  0  0  0  0  0
   -5.9604   10.4805   -7.7353 C   0  0  0  0  0  0  0  0  0  0  0  0
   -4.8075    9.7596   -8.0491 C   0  0  0  0  0  0  0  0  0  0  0  0
   -3.4358   11.5809   -7.2415 C   0  0  0  0  0  0  0  0  0  0  0  0
   -4.5835   12.3061   -6.9225 C   0  0  0  0  0  0  0  0  0  0  0  0
   -3.5481   10.3107   -7.8024 C   0  0  0  0  0  0  0  0  0  0  0  0
   -5.8471   11.7541   -7.1666 C   0  0  0  0  0  0  0  0  0  0  0  0
   -4.4650   13.6954   -6.3241 C   0  0  0  0  0  0  0  0  0  0  0  0
   -1.6558   12.5461  -10.1051 H   0  0  0  0  0  0  0  0  0  0  0  0
   -2.1418   14.8314   -9.9056 H   0  0  0  0  0  0  0  0  0  0  0  0
   -1.3273   14.8503  -11.5065 H   0  0  0  0  0  0  0  0  0  0  0  0
   -3.9292   11.6343  -11.3361 H   0  0  0  0  0  0  0  0  0  0  0  0
   -4.0052   12.5329   -9.7825 H   0  0  0  0  0  0  0  0  0  0  0  0
   -1.6986   11.5246  -12.1863 H   0  0  0  0  0  0  0  0  0  0  0  0
   -3.9654   15.7526  -11.0614 H   0  0  0  0  0  0  0  0  0  0  0  0
   -3.3451   15.2065  -12.6563 H   0  0  0  0  0  0  0  0  0  0  0  0
   -8.7298   10.7663  -13.3920 H   0  0  0  0  0  0  0  0  0  0  0  0
   -7.2340    9.8162  -13.6862 H   0  0  0  0  0  0  0  0  0  0  0  0
   -6.0607   12.2852   -9.8870 H   0  0  0  0  0  0  0  0  0  0  0  0
   -8.0295    9.6121   -7.2551 H   0  0  0  0  0  0  0  0  0  0  0  0
   -4.8892    8.7741   -8.4833 H   0  0  0  0  0  0  0  0  0  0  0  0
   -2.4600   12.0040   -7.0537 H   0  0  0  0  0  0  0  0  0  0  0  0
   -3.0270    9.6184   -7.1248 H   0  0  0  0  0  0  0  0  0  0  0  0
   -3.0225   10.3437   -8.7681 H   0  0  0  0  0  0  0  0  0  0  0  0
   -6.3717   12.4489   -7.8389 H   0  0  0  0  0  0  0  0  0  0  0  0
   -6.3685   11.7163   -6.1988 H   0  0  0  0  0  0  0  0  0  0  0  0
   -5.4700   14.1039   -6.1424 H   0  0  0  0  0  0  0  0  0  0  0  0
   -3.9148   13.6392   -5.3732 H   0  0  0  0  0  0  0  0  0  0  0  0
   -3.9239   14.3505   -7.0227 H   0  0  0  0  0  0  0  0  0  0  0  0
  1  2  1  0  0  0  0
  1  3  1  0  0  0  0
  1  4  1  0  0  0  0
  2  5  1  0  0  0  0
  3  6  1  0  0  0  0
  5  6  1  0  0  0  0
  6 12  1  0  0  0  0
  7  8  1  0  0  0  0
  7 10  2  0  0  0  0
  7 12  1  0  0  0  0
  8  9  1  0  0  0  0
  8 11  2  0  0  0  0
  9 15  1  0  0  0  0
 10 14  1  0  0  0  0
 12 13  2  0  0  0  0
 14 15  2  0  0  0  0
 14 18  1  0  0  0  0
 15 16  1  0  0  0  0
 16 17  2  0  0  0  0
 17 18  1  0  0  0  0
 18 19  2  0  0  0  0
 19 20  1  0  0  0  0
 20 21  2  0  0  0  0
 20 25  1  0  0  0  0
 21 24  1  0  0  0  0
 22 23  2  0  0  0  0
 22 24  1  0  0  0  0
 23 25  1  0  0  0  0
 23 26  1  0  0  0  0
  1 27  1  0  0  0  0
  2 28  1  0  0  0  0
  2 29  1  0  0  0  0
  3 30  1  0  0  0  0
  3 31  1  0  0  0  0
  4 32  1  0  0  0  0
  5 33  1  0  0  0  0
  5 34  1  0  0  0  0
  9 35  1  0  0  0  0
  9 36  1  0  0  0  0
 10 37  1  0  0  0  0
 19 38  1  0  0  0  0
 21 39  1  0  0  0  0
 22 40  1  0  0  0  0
 24 41  1  0  0  0  0
 24 42  1  0  0  0  0
 25 43  1  0  0  0  0
 25 44  1  0  0  0  0
 26 45  1  0  0  0  0
 26 46  1  0  0  0  0
 26 47  1  0  0  0  0
M  END
> <Name>
13

> <IC50[uM]>
0.006

$$$$
13
  -OEChem-05192314333D
 Structure written by MMmdl.
 47 50  0     1  0  0  0  0  0999 V2000
   -2.2088   12.9419  -10.9697 C   0  0  1  0  0  0  0  0  0  0  0  0
   -2.1904   14.4671  -10.9424 C   0  0  0  0  0  0  0  0  0  0  0  0
   -3.6992   12.5876  -10.8377 C   0  0  0  0  0  0  0  0  0  0  0  0
   -1.6826   12.4744  -12.1795 O   0  0  0  0  0  0  0  0  0  0  0  0
   -3.5107   14.9139  -11.6089 C   0  0  0  0  0  0  0  0  0  0  0  0
   -4.3443   13.7200  -11.5243 N   0  0  0  0  0  0  0  0  0  0  0  0
   -6.3525   12.3601  -12.0338 C   0  0  0  0  0  0  0  0  0  0  0  0
   -6.9727   11.7556  -13.1375 C   0  0  0  0  0  0  0  0  0  0  0  0
   -7.7097   10.5633  -13.0339 C   0  0  0  0  0  0  0  0  0  0  0  0
   -6.5001   11.8056  -10.7491 C   0  0  0  0  0  0  0  0  0  0  0  0
   -6.8506   12.3073  -14.3824 O   0  0  0  0  0  0  0  0  0  0  0  0
   -5.5377   13.6382  -12.2001 C   0  0  0  0  0  0  0  0  0  0  0  0
   -5.9500   14.5444  -12.9177 O   0  0  0  0  0  0  0  0  0  0  0  0
   -7.2308   10.6159  -10.6131 C   0  0  0  0  0  0  0  0  0  0  0  0
   -7.8083   10.0113  -11.7524 C   0  0  0  0  0  0  0  0  0  0  0  0
   -8.4200    8.8675  -11.2880 N   0  0  0  0  0  0  0  0  0  0  0  0
   -8.2847    8.7400   -9.9757 N   0  0  0  0  0  0  0  0  0  0  0  0
   -7.6047    9.7473   -9.5145 C   0  0  0  0  0  0  0  0  0  0  0  0
   -7.3264    9.8951   -8.0245 C   0  0  0  0  0  0  0  0  0  0  0  0
   -5.9604   10.4805   -7.7353 C   0  0  0  0  0  0  0  0  0  0  0  0
   -4.8075    9.7596   -8.0491 C   0  0  0  0  0  0  0  0  0  0  0  0
   -3.4358   11.5809   -7.2415 C   0  0  0  0  0  0  0  0  0  0  0  0
   -4.5835   12.3061   -6.9225 C   0  0  0  0  0  0  0  0  0  0  0  0
   -3.5481   10.3107   -7.8024 C   0  0  0  0  0  0  0  0  0  0  0  0
   -5.8471   11.7541   -7.1666 C   0  0  0  0  0  0  0  0  0  0  0  0
   -4.4650   13.6954   -6.3241 C   0  0  0  0  0  0  0  0  0  0  0  0
   -1.6558   12.5461  -10.1051 H   0  0  0  0  0  0  0  0  0  0  0  0
   -2.1418   14.8314   -9.9056 H   0  0  0  0  0  0  0  0  0  0  0  0
   -1.3273   14.8503  -11.5065 H   0  0  0  0  0  0  0  0  0  0  0  0
   -3.9292   11.6343  -11.3361 H   0  0  0  0  0  0  0  0  0  0  0  0
   -4.0052   12.5329   -9.7825 H   0  0  0  0  0  0  0  0  0  0  0  0
   -1.6986   11.5246  -12.1863 H   0  0  0  0  0  0  0  0  0  0  0  0
   -3.9654   15.7526  -11.0614 H   0  0  0  0  0  0  0  0  0  0  0  0
   -3.3451   15.2065  -12.6563 H   0  0  0  0  0  0  0  0  0  0  0  0
   -5.4494   11.7544  -12.1998 H   0  0  0  0  0  0  0  0  0  0  0  0
   -8.1726   10.1006  -13.8930 H   0  0  0  0  0  0  0  0  0  0  0  0
   -5.4892   11.6119  -10.3610 H   0  0  0  0  0  0  0  0  0  0  0  0
   -6.9942   12.5634  -10.1232 H   0  0  0  0  0  0  0  0  0  0  0  0
   -8.0295    9.6121   -7.2551 H   0  0  0  0  0  0  0  0  0  0  0  0
   -4.8892    8.7741   -8.4833 H   0  0  0  0  0  0  0  0  0  0  0  0
   -2.4600   12.0040   -7.0537 H   0  0  0  0  0  0  0  0  0  0  0  0
   -2.6581    9.7501   -8.0474 H   0  0  0  0  0  0  0  0  0  0  0  0
   -6.3717   12.4489   -7.8389 H   0  0  0  0  0  0  0  0  0  0  0  0
   -6.3685   11.7163   -6.1988 H   0  0  0  0  0  0  0  0  0  0  0  0
   -5.4700   14.1039   -6.1424 H   0  0  0  0  0  0  0  0  0  0  0  0
   -3.9148   13.6392   -5.3732 H   0  0  0  0  0  0  0  0  0  0  0  0
   -3.9239   14.3505   -7.0227 H   0  0  0  0  0  0  0  0  0  0  0  0
  1  2  1  0  0  0  0
  1  3  1  0  0  0  0
  1  4  1  0  0  0  0
  2  5  1  0  0  0  0
  3  6  1  0  0  0  0
  5  6  1  0  0  0  0
  6 12  1  0  0  0  0
  7  8  1  0  0  0  0
  7 10  1  0  0  0  0
  7 12  1  0  0  0  0
  8  9  1  0  0  0  0
  8 11  2  0  0  0  0
  9 15  2  0  0  0  0
 10 14  1  0  0  0  0
 12 13  2  0  0  0  0
 14 15  1  0  0  0  0
 14 18  2  0  0  0  0
 15 16  1  0  0  0  0
 16 17  2  0  0  0  0
 17 18  1  0  0  0  0
 18 19  1  0  0  0  0
 19 20  2  0  0  0  0
 20 21  1  0  0  0  0
 20 25  1  0  0  0  0
 21 24  2  0  0  0  0
 22 23  2  0  0  0  0
 22 24  1  0  0  0  0
 23 25  1  0  0  0  0
 23 26  1  0  0  0  0
  1 27  1  0  0  0  0
  2 28  1  0  0  0  0
  2 29  1  0  0  0  0
  3 30  1  0  0  0  0
  3 31  1  0  0  0  0
  4 32  1  0  0  0  0
  5 33  1  0  0  0  0
  5 34  1  0  0  0  0
  7 35  1  0  0  0  0
  9 36  1  0  0  0  0
 10 37  1  0  0  0  0
 10 38  1  0  0  0  0
 19 39  1  0  0  0  0
 21 40  1  0  0  0  0
 22 41  1  0  0  0  0
 24 42  1  0  0  0  0
 25 43  1  0  0  0  0
 25 44  1  0  0  0  0
 26 45  1  0  0  0  0
 26 46  1  0  0  0  0
 26 47  1  0  0  0  0
M  END
> <Name>
13

> <IC50[uM]>
0.006

$$$$
13
  -OEChem-05192314333D
 Structure written by MMmdl.
 47 50  0     1  0  0  0  0  0999 V2000
   -2.2088   12.9419  -10.9697 C   0  0  1  0  0  0  0  0  0  0  0  0
   -2.1904   14.4671  -10.9424 C   0  0  0  0  0  0  0  0  0  0  0  0
   -3.6992   12.5876  -10.8377 C   0  0  0  0  0  0  0  0  0  0  0  0
   -1.6826   12.4744  -12.1795 O   0  0  0  0  0  0  0  0  0  0  0  0
   -3.5107   14.9139  -11.6089 C   0  0  0  0  0  0  0  0  0  0  0  0
   -4.3443   13.7200  -11.5243 N   0  0  0  0  0  0  0  0  0  0  0  0
   -6.3525   12.3601  -12.0338 C   0  0  0  0  0  0  0  0  0  0  0  0
   -6.9727   11.7556  -13.1375 C   0  0  0  0  0  0  0  0  0  0  0  0
   -7.7097   10.5633  -13.0339 C   0  0  0  0  0  0  0  0  0  0  0  0
   -6.5001   11.8056  -10.7491 C   0  0  0  0  0  0  0  0  0  0  0  0
   -6.8506   12.3073  -14.3824 O   0  0  0  0  0  0  0  0  0  0  0  0
   -5.5377   13.6382  -12.2001 C   0  0  0  0  0  0  0  0  0  0  0  0
   -5.9500   14.5444  -12.9177 O   0  0  0  0  0  0  0  0  0  0  0  0
   -7.2308   10.6159  -10.6131 C   0  0  0  0  0  0  0  0  0  0  0  0
   -7.8083   10.0113  -11.7524 C   0  0  0  0  0  0  0  0  0  0  0  0
   -8.4200    8.8675  -11.2880 N   0  0  0  0  0  0  0  0  0  0  0  0
   -8.2847    8.7400   -9.9757 N   0  0  0  0  0  0  0  0  0  0  0  0
   -7.6047    9.7473   -9.5145 C   0  0  0  0  0  0  0  0  0  0  0  0
   -7.3264    9.8951   -8.0245 C   0  0  0  0  0  0  0  0  0  0  0  0
   -5.9604   10.4805   -7.7353 C   0  0  0  0  0  0  0  0  0  0  0  0
   -4.8075    9.7596   -8.0491 C   0  0  0  0  0  0  0  0  0  0  0  0
   -3.4358   11.5809   -7.2415 C   0  0  0  0  0  0  0  0  0  0  0  0
   -4.5835   12.3061   -6.9225 C   0  0  0  0  0  0  0  0  0  0  0  0
   -3.5481   10.3107   -7.8024 C   0  0  0  0  0  0  0  0  0  0  0  0
   -5.8471   11.7541   -7.1666 C   0  0  0  0  0  0  0  0  0  0  0  0
   -4.4650   13.6954   -6.3241 C   0  0  0  0  0  0  0  0  0  0  0  0
   -1.6558   12.5461  -10.1051 H   0  0  0  0  0  0  0  0  0  0  0  0
   -2.1418   14.8314   -9.9056 H   0  0  0  0  0  0  0  0  0  0  0  0
   -1.3273   14.8503  -11.5065 H   0  0  0  0  0  0  0  0  0  0  0  0
   -3.9292   11.6343  -11.3361 H   0  0  0  0  0  0  0  0  0  0  0  0
   -4.0052   12.5329   -9.7825 H   0  0  0  0  0  0  0  0  0  0  0  0
   -1.6986   11.5246  -12.1863 H   0  0  0  0  0  0  0  0  0  0  0  0
   -3.9654   15.7526  -11.0614 H   0  0  0  0  0  0  0  0  0  0  0  0
   -3.3451   15.2065  -12.6563 H   0  0  0  0  0  0  0  0  0  0  0  0
   -8.1726   10.1006  -13.8930 H   0  0  0  0  0  0  0  0  0  0  0  0
   -6.0607   12.2852   -9.8870 H   0  0  0  0  0  0  0  0  0  0  0  0
   -8.0906   10.5553   -7.5885 H   0  0  0  0  0  0  0  0  0  0  0  0
   -7.3891    8.9020   -7.5556 H   0  0  0  0  0  0  0  0  0  0  0  0
   -4.8892    8.7741   -8.4833 H   0  0  0  0  0  0  0  0  0  0  0  0
   -2.4600   12.0040   -7.0537 H   0  0  0  0  0  0  0  0  0  0  0  0
   -4.5836   11.8682   -5.9134 H   0  0  0  0  0  0  0  0  0  0  0  0
   -2.6581    9.7501   -8.0474 H   0  0  0  0  0  0  0  0  0  0  0  0
   -6.3717   12.4489   -7.8389 H   0  0  0  0  0  0  0  0  0  0  0  0
   -6.3685   11.7163   -6.1988 H   0  0  0  0  0  0  0  0  0  0  0  0
   -5.4700   14.1039   -6.1424 H   0  0  0  0  0  0  0  0  0  0  0  0
   -3.9148   13.6392   -5.3732 H   0  0  0  0  0  0  0  0  0  0  0  0
   -3.9239   14.3505   -7.0227 H   0  0  0  0  0  0  0  0  0  0  0  0
  1  2  1  0  0  0  0
  1  3  1  0  0  0  0
  1  4  1  0  0  0  0
  2  5  1  0  0  0  0
  3  6  1  0  0  0  0
  5  6  1  0  0  0  0
  6 12  1  0  0  0  0
  7  8  1  0  0  0  0
  7 10  2  0  0  0  0
  7 12  1  0  0  0  0
  8  9  1  0  0  0  0
  8 11  2  0  0  0  0
  9 15  2  0  0  0  0
 10 14  1  0  0  0  0
 12 13  2  0  0  0  0
 14 15  1  0  0  0  0
 14 18  2  0  0  0  0
 15 16  1  0  0  0  0
 16 17  2  0  0  0  0
 17 18  1  0  0  0  0
 18 19  1  0  0  0  0
 19 20  1  0  0  0  0
 20 21  2  0  0  0  0
 20 25  1  0  0  0  0
 21 24  1  0  0  0  0
 22 23  1  0  0  0  0
 22 24  2  0  0  0  0
 23 25  1  0  0  0  0
 23 26  1  0  0  0  0
  1 27  1  0  0  0  0
  2 28  1  0  0  0  0
  2 29  1  0  0  0  0
  3 30  1  0  0  0  0
  3 31  1  0  0  0  0
  4 32  1  0  0  0  0
  5 33  1  0  0  0  0
  5 34  1  0  0  0  0
  9 35  1  0  0  0  0
 10 36  1  0  0  0  0
 19 37  1  0  0  0  0
 19 38  1  0  0  0  0
 21 39  1  0  0  0  0
 22 40  1  0  0  0  0
 23 41  1  0  0  0  0
 24 42  1  0  0  0  0
 25 43  1  0  0  0  0
 25 44  1  0  0  0  0
 26 45  1  0  0  0  0
 26 46  1  0  0  0  0
 26 47  1  0  0  0  0
M  END
> <Name>
13

> <IC50[uM]>
0.006

$$$$
13
  -OEChem-05192314333D
 Structure written by MMmdl.
 47 50  0     1  0  0  0  0  0999 V2000
   -2.2088   12.9419  -10.9697 C   0  0  1  0  0  0  0  0  0  0  0  0
   -2.1904   14.4671  -10.9424 C   0  0  0  0  0  0  0  0  0  0  0  0
   -3.6992   12.5876  -10.8377 C   0  0  0  0  0  0  0  0  0  0  0  0
   -1.6826   12.4744  -12.1795 O   0  0  0  0  0  0  0  0  0  0  0  0
   -3.5107   14.9139  -11.6089 C   0  0  0  0  0  0  0  0  0  0  0  0
   -4.3443   13.7200  -11.5243 N   0  0  0  0  0  0  0  0  0  0  0  0
   -6.3525   12.3601  -12.0338 C   0  0  0  0  0  0  0  0  0  0  0  0
   -6.9727   11.7556  -13.1375 C   0  0  0  0  0  0  0  0  0  0  0  0
   -7.7097   10.5633  -13.0339 C   0  0  0  0  0  0  0  0  0  0  0  0
   -6.5001   11.8056  -10.7491 C   0  0  0  0  0  0  0  0  0  0  0  0
   -6.8506   12.3073  -14.3824 O   0  0  0  0  0  0  0  0  0  0  0  0
   -5.5377   13.6382  -12.2001 C   0  0  0  0  0  0  0  0  0  0  0  0
   -5.9500   14.5444  -12.9177 O   0  0  0  0  0  0  0  0  0  0  0  0
   -7.2308   10.6159  -10.6131 C   0  0  0  0  0  0  0  0  0  0  0  0
   -7.8083   10.0113  -11.7524 C   0  0  0  0  0  0  0  0  0  0  0  0
   -8.4200    8.8675  -11.2880 N   0  0  0  0  0  0  0  0  0  0  0  0
   -8.2847    8.7400   -9.9757 N   0  0  0  0  0  0  0  0  0  0  0  0
   -7.6047    9.7473   -9.5145 C   0  0  0  0  0  0  0  0  0  0  0  0
   -7.3264    9.8951   -8.0245 C   0  0  0  0  0  0  0  0  0  0  0  0
   -5.9604   10.4805   -7.7353 C   0  0  0  0  0  0  0  0  0  0  0  0
   -4.8075    9.7596   -8.0491 C   0  0  0  0  0  0  0  0  0  0  0  0
   -3.4358   11.5809   -7.2415 C   0  0  0  0  0  0  0  0  0  0  0  0
   -4.5835   12.3061   -6.9225 C   0  0  0  0  0  0  0  0  0  0  0  0
   -3.5481   10.3107   -7.8024 C   0  0  0  0  0  0  0  0  0  0  0  0
   -5.8471   11.7541   -7.1666 C   0  0  0  0  0  0  0  0  0  0  0  0
   -4.4650   13.6954   -6.3241 C   0  0  0  0  0  0  0  0  0  0  0  0
   -1.6558   12.5461  -10.1051 H   0  0  0  0  0  0  0  0  0  0  0  0
   -2.1418   14.8314   -9.9056 H   0  0  0  0  0  0  0  0  0  0  0  0
   -1.3273   14.8503  -11.5065 H   0  0  0  0  0  0  0  0  0  0  0  0
   -3.9292   11.6343  -11.3361 H   0  0  0  0  0  0  0  0  0  0  0  0
   -4.0052   12.5329   -9.7825 H   0  0  0  0  0  0  0  0  0  0  0  0
   -1.6986   11.5246  -12.1863 H   0  0  0  0  0  0  0  0  0  0  0  0
   -3.9654   15.7526  -11.0614 H   0  0  0  0  0  0  0  0  0  0  0  0
   -3.3451   15.2065  -12.6563 H   0  0  0  0  0  0  0  0  0  0  0  0
   -8.1726   10.1006  -13.8930 H   0  0  0  0  0  0  0  0  0  0  0  0
   -6.0607   12.2852   -9.8870 H   0  0  0  0  0  0  0  0  0  0  0  0
   -8.0906   10.5553   -7.5885 H   0  0  0  0  0  0  0  0  0  0  0  0
   -7.3891    8.9020   -7.5556 H   0  0  0  0  0  0  0  0  0  0  0  0
   -5.9749   10.0291   -6.7323 H   0  0  0  0  0  0  0  0  0  0  0  0
   -4.8892    8.7741   -8.4833 H   0  0  0  0  0  0  0  0  0  0  0  0
   -2.4600   12.0040   -7.0537 H   0  0  0  0  0  0  0  0  0  0  0  0
   -2.6581    9.7501   -8.0474 H   0  0  0  0  0  0  0  0  0  0  0  0
   -6.3717   12.4489   -7.8389 H   0  0  0  0  0  0  0  0  0  0  0  0
   -6.3685   11.7163   -6.1988 H   0  0  0  0  0  0  0  0  0  0  0  0
   -5.4700   14.1039   -6.1424 H   0  0  0  0  0  0  0  0  0  0  0  0
   -3.9148   13.6392   -5.3732 H   0  0  0  0  0  0  0  0  0  0  0  0
   -3.9239   14.3505   -7.0227 H   0  0  0  0  0  0  0  0  0  0  0  0
  1  2  1  0  0  0  0
  1  3  1  0  0  0  0
  1  4  1  0  0  0  0
  2  5  1  0  0  0  0
  3  6  1  0  0  0  0
  5  6  1  0  0  0  0
  6 12  1  0  0  0  0
  7  8  1  0  0  0  0
  7 10  2  0  0  0  0
  7 12  1  0  0  0  0
  8  9  1  0  0  0  0
  8 11  2  0  0  0  0
  9 15  2  0  0  0  0
 10 14  1  0  0  0  0
 12 13  2  0  0  0  0
 14 15  1  0  0  0  0
 14 18  2  0  0  0  0
 15 16  1  0  0  0  0
 16 17  2  0  0  0  0
 17 18  1  0  0  0  0
 18 19  1  0  0  0  0
 19 20  1  0  0  0  0
 20 21  1  0  0  0  0
 20 25  1  0  0  0  0
 21 24  2  0  0  0  0
 22 23  2  0  0  0  0
 22 24  1  0  0  0  0
 23 25  1  0  0  0  0
 23 26  1  0  0  0  0
  1 27  1  0  0  0  0
  2 28  1  0  0  0  0
  2 29  1  0  0  0  0
  3 30  1  0  0  0  0
  3 31  1  0  0  0  0
  4 32  1  0  0  0  0
  5 33  1  0  0  0  0
  5 34  1  0  0  0  0
  9 35  1  0  0  0  0
 10 36  1  0  0  0  0
 19 37  1  0  0  0  0
 19 38  1  0  0  0  0
 20 39  1  0  0  0  0
 21 40  1  0  0  0  0
 22 41  1  0  0  0  0
 24 42  1  0  0  0  0
 25 43  1  0  0  0  0
 25 44  1  0  0  0  0
 26 45  1  0  0  0  0
 26 46  1  0  0  0  0
 26 47  1  0  0  0  0
M  END
> <Name>
13

> <IC50[uM]>
0.006

$$$$
13
  -OEChem-05192314333D
 Structure written by MMmdl.
 47 50  0     1  0  0  0  0  0999 V2000
   -2.2088   12.9419  -10.9697 C   0  0  1  0  0  0  0  0  0  0  0  0
   -2.1904   14.4671  -10.9424 C   0  0  0  0  0  0  0  0  0  0  0  0
   -3.6992   12.5876  -10.8377 C   0  0  0  0  0  0  0  0  0  0  0  0
   -1.6826   12.4744  -12.1795 O   0  0  0  0  0  0  0  0  0  0  0  0
   -3.5107   14.9139  -11.6089 C   0  0  0  0  0  0  0  0  0  0  0  0
   -4.3443   13.7200  -11.5243 N   0  0  0  0  0  0  0  0  0  0  0  0
   -6.3525   12.3601  -12.0338 C   0  0  0  0  0  0  0  0  0  0  0  0
   -6.9727   11.7556  -13.1375 C   0  0  0  0  0  0  0  0  0  0  0  0
   -7.7097   10.5633  -13.0339 C   0  0  0  0  0  0  0  0  0  0  0  0
   -6.5001   11.8056  -10.7491 C   0  0  0  0  0  0  0  0  0  0  0  0
   -6.8506   12.3073  -14.3824 O   0  0  0  0  0  0  0  0  0  0  0  0
   -5.5377   13.6382  -12.2001 C   0  0  0  0  0  0  0  0  0  0  0  0
   -5.9500   14.5444  -12.9177 O   0  0  0  0  0  0  0  0  0  0  0  0
   -7.2308   10.6159  -10.6131 C   0  0  0  0  0  0  0  0  0  0  0  0
   -7.8083   10.0113  -11.7524 C   0  0  0  0  0  0  0  0  0  0  0  0
   -8.4200    8.8675  -11.2880 N   0  0  0  0  0  0  0  0  0  0  0  0
   -8.2847    8.7400   -9.9757 N   0  0  0  0  0  0  0  0  0  0  0  0
   -7.6047    9.7473   -9.5145 C   0  0  0  0  0  0  0  0  0  0  0  0
   -7.3264    9.8951   -8.0245 C   0  0  0  0  0  0  0  0  0  0  0  0
   -5.9604   10.4805   -7.7353 C   0  0  0  0  0  0  0  0  0  0  0  0
   -4.8075    9.7596   -8.0491 C   0  0  0  0  0  0  0  0  0  0  0  0
   -3.4358   11.5809   -7.2415 C   0  0  0  0  0  0  0  0  0  0  0  0
   -4.5835   12.3061   -6.9225 C   0  0  0  0  0  0  0  0  0  0  0  0
   -3.5481   10.3107   -7.8024 C   0  0  0  0  0  0  0  0  0  0  0  0
   -5.8471   11.7541   -7.1666 C   0  0  0  0  0  0  0  0  0  0  0  0
   -4.4650   13.6954   -6.3241 C   0  0  0  0  0  0  0  0  0  0  0  0
   -1.6558   12.5461  -10.1051 H   0  0  0  0  0  0  0  0  0  0  0  0
   -2.1418   14.8314   -9.9056 H   0  0  0  0  0  0  0  0  0  0  0  0
   -1.3273   14.8503  -11.5065 H   0  0  0  0  0  0  0  0  0  0  0  0
   -3.9292   11.6343  -11.3361 H   0  0  0  0  0  0  0  0  0  0  0  0
   -4.0052   12.5329   -9.7825 H   0  0  0  0  0  0  0  0  0  0  0  0
   -1.6986   11.5246  -12.1863 H   0  0  0  0  0  0  0  0  0  0  0  0
   -3.9654   15.7526  -11.0614 H   0  0  0  0  0  0  0  0  0  0  0  0
   -3.3451   15.2065  -12.6563 H   0  0  0  0  0  0  0  0  0  0  0  0
   -8.1726   10.1006  -13.8930 H   0  0  0  0  0  0  0  0  0  0  0  0
   -6.0607   12.2852   -9.8870 H   0  0  0  0  0  0  0  0  0  0  0  0
   -8.0906   10.5553   -7.5885 H   0  0  0  0  0  0  0  0  0  0  0  0
   -7.3891    8.9020   -7.5556 H   0  0  0  0  0  0  0  0  0  0  0  0
   -4.8892    8.7741   -8.4833 H   0  0  0  0  0  0  0  0  0  0  0  0
   -2.4600   12.0040   -7.0537 H   0  0  0  0  0  0  0  0  0  0  0  0
   -3.0270    9.6184   -7.1248 H   0  0  0  0  0  0  0  0  0  0  0  0
   -3.0225   10.3437   -8.7681 H   0  0  0  0  0  0  0  0  0  0  0  0
   -6.3717   12.4489   -7.8389 H   0  0  0  0  0  0  0  0  0  0  0  0
   -6.3685   11.7163   -6.1988 H   0  0  0  0  0  0  0  0  0  0  0  0
   -5.4700   14.1039   -6.1424 H   0  0  0  0  0  0  0  0  0  0  0  0
   -3.9148   13.6392   -5.3732 H   0  0  0  0  0  0  0  0  0  0  0  0
   -3.9239   14.3505   -7.0227 H   0  0  0  0  0  0  0  0  0  0  0  0
  1  2  1  0  0  0  0
  1  3  1  0  0  0  0
  1  4  1  0  0  0  0
  2  5  1  0  0  0  0
  3  6  1  0  0  0  0
  5  6  1  0  0  0  0
  6 12  1  0  0  0  0
  7  8  1  0  0  0  0
  7 10  2  0  0  0  0
  7 12  1  0  0  0  0
  8  9  1  0  0  0  0
  8 11  2  0  0  0  0
  9 15  2  0  0  0  0
 10 14  1  0  0  0  0
 12 13  2  0  0  0  0
 14 15  1  0  0  0  0
 14 18  2  0  0  0  0
 15 16  1  0  0  0  0
 16 17  2  0  0  0  0
 17 18  1  0  0  0  0
 18 19  1  0  0  0  0
 19 20  1  0  0  0  0
 20 21  2  0  0  0  0
 20 25  1  0  0  0  0
 21 24  1  0  0  0  0
 22 23  2  0  0  0  0
 22 24  1  0  0  0  0
 23 25  1  0  0  0  0
 23 26  1  0  0  0  0
  1 27  1  0  0  0  0
  2 28  1  0  0  0  0
  2 29  1  0  0  0  0
  3 30  1  0  0  0  0
  3 31  1  0  0  0  0
  4 32  1  0  0  0  0
  5 33  1  0  0  0  0
  5 34  1  0  0  0  0
  9 35  1  0  0  0  0
 10 36  1  0  0  0  0
 19 37  1  0  0  0  0
 19 38  1  0  0  0  0
 21 39  1  0  0  0  0
 22 40  1  0  0  0  0
 24 41  1  0  0  0  0
 24 42  1  0  0  0  0
 25 43  1  0  0  0  0
 25 44  1  0  0  0  0
 26 45  1  0  0  0  0
 26 46  1  0  0  0  0
 26 47  1  0  0  0  0
M  END
> <Name>
13

> <IC50[uM]>
0.006

$$$$
13
  -OEChem-05192314333D
 Structure written by MMmdl.
 47 50  0     1  0  0  0  0  0999 V2000
   -2.2088   12.9419  -10.9697 C   0  0  1  0  0  0  0  0  0  0  0  0
   -2.1904   14.4671  -10.9424 C   0  0  0  0  0  0  0  0  0  0  0  0
   -3.6992   12.5876  -10.8377 C   0  0  0  0  0  0  0  0  0  0  0  0
   -1.6826   12.4744  -12.1795 O   0  0  0  0  0  0  0  0  0  0  0  0
   -3.5107   14.9139  -11.6089 C   0  0  0  0  0  0  0  0  0  0  0  0
   -4.3443   13.7200  -11.5243 N   0  0  0  0  0  0  0  0  0  0  0  0
   -6.3525   12.3601  -12.0338 C   0  0  0  0  0  0  0  0  0  0  0  0
   -6.9727   11.7556  -13.1375 C   0  0  0  0  0  0  0  0  0  0  0  0
   -7.7097   10.5633  -13.0339 C   0  0  0  0  0  0  0  0  0  0  0  0
   -6.5001   11.8056  -10.7491 C   0  0  0  0  0  0  0  0  0  0  0  0
   -6.8506   12.3073  -14.3824 O   0  0  0  0  0  0  0  0  0  0  0  0
   -5.5377   13.6382  -12.2001 C   0  0  0  0  0  0  0  0  0  0  0  0
   -5.9500   14.5444  -12.9177 O   0  0  0  0  0  0  0  0  0  0  0  0
   -7.2308   10.6159  -10.6131 C   0  0  0  0  0  0  0  0  0  0  0  0
   -7.8083   10.0113  -11.7524 C   0  0  0  0  0  0  0  0  0  0  0  0
   -8.4200    8.8675  -11.2880 N   0  0  0  0  0  0  0  0  0  0  0  0
   -8.2847    8.7400   -9.9757 N   0  0  0  0  0  0  0  0  0  0  0  0
   -7.6047    9.7473   -9.5145 C   0  0  0  0  0  0  0  0  0  0  0  0
   -7.3264    9.8951   -8.0245 C   0  0  0  0  0  0  0  0  0  0  0  0
   -5.9604   10.4805   -7.7353 C   0  0  0  0  0  0  0  0  0  0  0  0
   -4.8075    9.7596   -8.0491 C   0  0  0  0  0  0  0  0  0  0  0  0
   -3.4358   11.5809   -7.2415 C   0  0  0  0  0  0  0  0  0  0  0  0
   -4.5835   12.3061   -6.9225 C   0  0  0  0  0  0  0  0  0  0  0  0
   -3.5481   10.3107   -7.8024 C   0  0  0  0  0  0  0  0  0  0  0  0
   -5.8471   11.7541   -7.1666 C   0  0  0  0  0  0  0  0  0  0  0  0
   -4.4650   13.6954   -6.3241 C   0  0  0  0  0  0  0  0  0  0  0  0
   -1.6558   12.5461  -10.1051 H   0  0  0  0  0  0  0  0  0  0  0  0
   -2.1418   14.8314   -9.9056 H   0  0  0  0  0  0  0  0  0  0  0  0
   -1.3273   14.8503  -11.5065 H   0  0  0  0  0  0  0  0  0  0  0  0
   -3.9292   11.6343  -11.3361 H   0  0  0  0  0  0  0  0  0  0  0  0
   -4.0052   12.5329   -9.7825 H   0  0  0  0  0  0  0  0  0  0  0  0
   -1.6986   11.5246  -12.1863 H   0  0  0  0  0  0  0  0  0  0  0  0
   -3.9654   15.7526  -11.0614 H   0  0  0  0  0  0  0  0  0  0  0  0
   -3.3451   15.2065  -12.6563 H   0  0  0  0  0  0  0  0  0  0  0  0
   -8.1726   10.1006  -13.8930 H   0  0  0  0  0  0  0  0  0  0  0  0
   -6.0607   12.2852   -9.8870 H   0  0  0  0  0  0  0  0  0  0  0  0
   -6.3117   10.0311  -10.7657 H   0  0  0  0  0  0  0  0  0  0  0  0
   -8.9058    8.2145  -11.8690 H   0  0  0  0  0  0  0  0  0  0  0  0
   -8.0295    9.6121   -7.2551 H   0  0  0  0  0  0  0  0  0  0  0  0
   -4.8582    8.8181   -7.4825 H   0  0  0  0  0  0  0  0  0  0  0  0
   -4.8529    9.5421   -9.1264 H   0  0  0  0  0  0  0  0  0  0  0  0
   -2.4600   12.0040   -7.0537 H   0  0  0  0  0  0  0  0  0  0  0  0
   -2.6581    9.7501   -8.0474 H   0  0  0  0  0  0  0  0  0  0  0  0
   -6.7366   12.3128   -6.9153 H   0  0  0  0  0  0  0  0  0  0  0  0
   -5.4700   14.1039   -6.1424 H   0  0  0  0  0  0  0  0  0  0  0  0
   -3.9148   13.6392   -5.3732 H   0  0  0  0  0  0  0  0  0  0  0  0
   -3.9239   14.3505   -7.0227 H   0  0  0  0  0  0  0  0  0  0  0  0
  1  2  1  0  0  0  0
  1  3  1  0  0  0  0
  1  4  1  0  0  0  0
  2  5  1  0  0  0  0
  3  6  1  0  0  0  0
  5  6  1  0  0  0  0
  6 12  1  0  0  0  0
  7  8  1  0  0  0  0
  7 10  2  0  0  0  0
  7 12  1  0  0  0  0
  8  9  1  0  0  0  0
  8 11  2  0  0  0  0
  9 15  2  0  0  0  0
 10 14  1  0  0  0  0
 12 13  2  0  0  0  0
 14 15  1  0  0  0  0
 14 18  1  0  0  0  0
 15 16  1  0  0  0  0
 16 17  1  0  0  0  0
 17 18  2  0  0  0  0
 18 19  1  0  0  0  0
 19 20  2  0  0  0  0
 20 21  1  0  0  0  0
 20 25  1  0  0  0  0
 21 24  1  0  0  0  0
 22 23  1  0  0  0  0
 22 24  2  0  0  0  0
 23 25  2  0  0  0  0
 23 26  1  0  0  0  0
  1 27  1  0  0  0  0
  2 28  1  0  0  0  0
  2 29  1  0  0  0  0
  3 30  1  0  0  0  0
  3 31  1  0  0  0  0
  4 32  1  0  0  0  0
  5 33  1  0  0  0  0
  5 34  1  0  0  0  0
  9 35  1  0  0  0  0
 10 36  1  0  0  0  0
 14 37  1  0  0  0  0
 16 38  1  0  0  0  0
 19 39  1  0  0  0  0
 21 40  1  0  0  0  0
 21 41  1  0  0  0  0
 22 42  1  0  0  0  0
 24 43  1  0  0  0  0
 25 44  1  0  0  0  0
 26 45  1  0  0  0  0
 26 46  1  0  0  0  0
 26 47  1  0  0  0  0
M  END
> <Name>
13

> <IC50[uM]>
0.006

$$$$
13
  -OEChem-05192314333D
 Structure written by MMmdl.
 47 50  0     1  0  0  0  0  0999 V2000
   -2.2088   12.9419  -10.9697 C   0  0  1  0  0  0  0  0  0  0  0  0
   -2.1904   14.4671  -10.9424 C   0  0  0  0  0  0  0  0  0  0  0  0
   -3.6992   12.5876  -10.8377 C   0  0  0  0  0  0  0  0  0  0  0  0
   -1.6826   12.4744  -12.1795 O   0  0  0  0  0  0  0  0  0  0  0  0
   -3.5107   14.9139  -11.6089 C   0  0  0  0  0  0  0  0  0  0  0  0
   -4.3443   13.7200  -11.5243 N   0  0  0  0  0  0  0  0  0  0  0  0
   -6.3525   12.3601  -12.0338 C   0  0  0  0  0  0  0  0  0  0  0  0
   -6.9727   11.7556  -13.1375 C   0  0  0  0  0  0  0  0  0  0  0  0
   -7.7097   10.5633  -13.0339 C   0  0  0  0  0  0  0  0  0  0  0  0
   -6.5001   11.8056  -10.7491 C   0  0  0  0  0  0  0  0  0  0  0  0
   -6.8506   12.3073  -14.3824 O   0  0  0  0  0  0  0  0  0  0  0  0
   -5.5377   13.6382  -12.2001 C   0  0  0  0  0  0  0  0  0  0  0  0
   -5.9500   14.5444  -12.9177 O   0  0  0  0  0  0  0  0  0  0  0  0
   -7.2308   10.6159  -10.6131 C   0  0  0  0  0  0  0  0  0  0  0  0
   -7.8083   10.0113  -11.7524 C   0  0  0  0  0  0  0  0  0  0  0  0
   -8.4200    8.8675  -11.2880 N   0  0  0  0  0  0  0  0  0  0  0  0
   -8.2847    8.7400   -9.9757 N   0  0  0  0  0  0  0  0  0  0  0  0
   -7.6047    9.7473   -9.5145 C   0  0  0  0  0  0  0  0  0  0  0  0
   -7.3264    9.8951   -8.0245 C   0  0  0  0  0  0  0  0  0  0  0  0
   -5.9604   10.4805   -7.7353 C   0  0  0  0  0  0  0  0  0  0  0  0
   -4.8075    9.7596   -8.0491 C   0  0  0  0  0  0  0  0  0  0  0  0
   -3.4358   11.5809   -7.2415 C   0  0  0  0  0  0  0  0  0  0  0  0
   -4.5835   12.3061   -6.9225 C   0  0  0  0  0  0  0  0  0  0  0  0
   -3.5481   10.3107   -7.8024 C   0  0  0  0  0  0  0  0  0  0  0  0
   -5.8471   11.7541   -7.1666 C   0  0  0  0  0  0  0  0  0  0  0  0
   -4.4650   13.6954   -6.3241 C   0  0  0  0  0  0  0  0  0  0  0  0
   -1.6558   12.5461  -10.1051 H   0  0  0  0  0  0  0  0  0  0  0  0
   -2.1418   14.8314   -9.9056 H   0  0  0  0  0  0  0  0  0  0  0  0
   -1.3273   14.8503  -11.5065 H   0  0  0  0  0  0  0  0  0  0  0  0
   -3.9292   11.6343  -11.3361 H   0  0  0  0  0  0  0  0  0  0  0  0
   -4.0052   12.5329   -9.7825 H   0  0  0  0  0  0  0  0  0  0  0  0
   -1.6986   11.5246  -12.1863 H   0  0  0  0  0  0  0  0  0  0  0  0
   -3.9654   15.7526  -11.0614 H   0  0  0  0  0  0  0  0  0  0  0  0
   -3.3451   15.2065  -12.6563 H   0  0  0  0  0  0  0  0  0  0  0  0
   -8.1726   10.1006  -13.8930 H   0  0  0  0  0  0  0  0  0  0  0  0
   -6.0607   12.2852   -9.8870 H   0  0  0  0  0  0  0  0  0  0  0  0
   -6.3117   10.0311  -10.7657 H   0  0  0  0  0  0  0  0  0  0  0  0
   -8.9058    8.2145  -11.8690 H   0  0  0  0  0  0  0  0  0  0  0  0
   -8.0295    9.6121   -7.2551 H   0  0  0  0  0  0  0  0  0  0  0  0
   -4.8892    8.7741   -8.4833 H   0  0  0  0  0  0  0  0  0  0  0  0
   -2.8612   12.1924   -7.9527 H   0  0  0  0  0  0  0  0  0  0  0  0
   -2.8628   11.4670   -6.3094 H   0  0  0  0  0  0  0  0  0  0  0  0
   -2.6581    9.7501   -8.0474 H   0  0  0  0  0  0  0  0  0  0  0  0
   -6.7366   12.3128   -6.9153 H   0  0  0  0  0  0  0  0  0  0  0  0
   -5.4700   14.1039   -6.1424 H   0  0  0  0  0  0  0  0  0  0  0  0
   -3.9148   13.6392   -5.3732 H   0  0  0  0  0  0  0  0  0  0  0  0
   -3.9239   14.3505   -7.0227 H   0  0  0  0  0  0  0  0  0  0  0  0
  1  2  1  0  0  0  0
  1  3  1  0  0  0  0
  1  4  1  0  0  0  0
  2  5  1  0  0  0  0
  3  6  1  0  0  0  0
  5  6  1  0  0  0  0
  6 12  1  0  0  0  0
  7  8  1  0  0  0  0
  7 10  2  0  0  0  0
  7 12  1  0  0  0  0
  8  9  1  0  0  0  0
  8 11  2  0  0  0  0
  9 15  2  0  0  0  0
 10 14  1  0  0  0  0
 12 13  2  0  0  0  0
 14 15  1  0  0  0  0
 14 18  1  0  0  0  0
 15 16  1  0  0  0  0
 16 17  1  0  0  0  0
 17 18  2  0  0  0  0
 18 19  1  0  0  0  0
 19 20  2  0  0  0  0
 20 21  1  0  0  0  0
 20 25  1  0  0  0  0
 21 24  2  0  0  0  0
 22 23  1  0  0  0  0
 22 24  1  0  0  0  0
 23 25  2  0  0  0  0
 23 26  1  0  0  0  0
  1 27  1  0  0  0  0
  2 28  1  0  0  0  0
  2 29  1  0  0  0  0
  3 30  1  0  0  0  0
  3 31  1  0  0  0  0
  4 32  1  0  0  0  0
  5 33  1  0  0  0  0
  5 34  1  0  0  0  0
  9 35  1  0  0  0  0
 10 36  1  0  0  0  0
 14 37  1  0  0  0  0
 16 38  1  0  0  0  0
 19 39  1  0  0  0  0
 21 40  1  0  0  0  0
 22 41  1  0  0  0  0
 22 42  1  0  0  0  0
 24 43  1  0  0  0  0
 25 44  1  0  0  0  0
 26 45  1  0  0  0  0
 26 46  1  0  0  0  0
 26 47  1  0  0  0  0
M  END
> <Name>
13

> <IC50[uM]>
0.006

$$$$
13
  -OEChem-05192314333D
 Structure written by MMmdl.
 47 50  0     1  0  0  0  0  0999 V2000
   -2.2088   12.9419  -10.9697 C   0  0  1  0  0  0  0  0  0  0  0  0
   -2.1904   14.4671  -10.9424 C   0  0  0  0  0  0  0  0  0  0  0  0
   -3.6992   12.5876  -10.8377 C   0  0  0  0  0  0  0  0  0  0  0  0
   -1.6826   12.4744  -12.1795 O   0  0  0  0  0  0  0  0  0  0  0  0
   -3.5107   14.9139  -11.6089 C   0  0  0  0  0  0  0  0  0  0  0  0
   -4.3443   13.7200  -11.5243 N   0  0  0  0  0  0  0  0  0  0  0  0
   -6.3525   12.3601  -12.0338 C   0  0  0  0  0  0  0  0  0  0  0  0
   -6.9727   11.7556  -13.1375 C   0  0  0  0  0  0  0  0  0  0  0  0
   -7.7097   10.5633  -13.0339 C   0  0  0  0  0  0  0  0  0  0  0  0
   -6.5001   11.8056  -10.7491 C   0  0  0  0  0  0  0  0  0  0  0  0
   -6.8506   12.3073  -14.3824 O   0  0  0  0  0  0  0  0  0  0  0  0
   -5.5377   13.6382  -12.2001 C   0  0  0  0  0  0  0  0  0  0  0  0
   -5.9500   14.5444  -12.9177 O   0  0  0  0  0  0  0  0  0  0  0  0
   -7.2308   10.6159  -10.6131 C   0  0  0  0  0  0  0  0  0  0  0  0
   -7.8083   10.0113  -11.7524 C   0  0  0  0  0  0  0  0  0  0  0  0
   -8.4200    8.8675  -11.2880 N   0  0  0  0  0  0  0  0  0  0  0  0
   -8.2847    8.7400   -9.9757 N   0  0  0  0  0  0  0  0  0  0  0  0
   -7.6047    9.7473   -9.5145 C   0  0  0  0  0  0  0  0  0  0  0  0
   -7.3264    9.8951   -8.0245 C   0  0  0  0  0  0  0  0  0  0  0  0
   -5.9604   10.4805   -7.7353 C   0  0  0  0  0  0  0  0  0  0  0  0
   -4.8075    9.7596   -8.0491 C   0  0  0  0  0  0  0  0  0  0  0  0
   -3.4358   11.5809   -7.2415 C   0  0  0  0  0  0  0  0  0  0  0  0
   -4.5835   12.3061   -6.9225 C   0  0  0  0  0  0  0  0  0  0  0  0
   -3.5481   10.3107   -7.8024 C   0  0  0  0  0  0  0  0  0  0  0  0
   -5.8471   11.7541   -7.1666 C   0  0  0  0  0  0  0  0  0  0  0  0
   -4.4650   13.6954   -6.3241 C   0  0  0  0  0  0  0  0  0  0  0  0
   -1.6558   12.5461  -10.1051 H   0  0  0  0  0  0  0  0  0  0  0  0
   -2.1418   14.8314   -9.9056 H   0  0  0  0  0  0  0  0  0  0  0  0
   -1.3273   14.8503  -11.5065 H   0  0  0  0  0  0  0  0  0  0  0  0
   -3.9292   11.6343  -11.3361 H   0  0  0  0  0  0  0  0  0  0  0  0
   -4.0052   12.5329   -9.7825 H   0  0  0  0  0  0  0  0  0  0  0  0
   -1.6986   11.5246  -12.1863 H   0  0  0  0  0  0  0  0  0  0  0  0
   -3.9654   15.7526  -11.0614 H   0  0  0  0  0  0  0  0  0  0  0  0
   -3.3451   15.2065  -12.6563 H   0  0  0  0  0  0  0  0  0  0  0  0
   -8.1726   10.1006  -13.8930 H   0  0  0  0  0  0  0  0  0  0  0  0
   -6.0607   12.2852   -9.8870 H   0  0  0  0  0  0  0  0  0  0  0  0
   -6.3117   10.0311  -10.7657 H   0  0  0  0  0  0  0  0  0  0  0  0
   -8.9058    8.2145  -11.8690 H   0  0  0  0  0  0  0  0  0  0  0  0
   -8.0295    9.6121   -7.2551 H   0  0  0  0  0  0  0  0  0  0  0  0
   -4.8892    8.7741   -8.4833 H   0  0  0  0  0  0  0  0  0  0  0  0
   -2.4600   12.0040   -7.0537 H   0  0  0  0  0  0  0  0  0  0  0  0
   -2.6581    9.7501   -8.0474 H   0  0  0  0  0  0  0  0  0  0  0  0
   -6.3717   12.4489   -7.8389 H   0  0  0  0  0  0  0  0  0  0  0  0
   -6.3685   11.7163   -6.1988 H   0  0  0  0  0  0  0  0  0  0  0  0
   -5.4700   14.1039   -6.1424 H   0  0  0  0  0  0  0  0  0  0  0  0
   -3.9148   13.6392   -5.3732 H   0  0  0  0  0  0  0  0  0  0  0  0
   -3.9239   14.3505   -7.0227 H   0  0  0  0  0  0  0  0  0  0  0  0
  1  2  1  0  0  0  0
  1  3  1  0  0  0  0
  1  4  1  0  0  0  0
  2  5  1  0  0  0  0
  3  6  1  0  0  0  0
  5  6  1  0  0  0  0
  6 12  1  0  0  0  0
  7  8  1  0  0  0  0
  7 10  2  0  0  0  0
  7 12  1  0  0  0  0
  8  9  1  0  0  0  0
  8 11  2  0  0  0  0
  9 15  2  0  0  0  0
 10 14  1  0  0  0  0
 12 13  2  0  0  0  0
 14 15  1  0  0  0  0
 14 18  1  0  0  0  0
 15 16  1  0  0  0  0
 16 17  1  0  0  0  0
 17 18  2  0  0  0  0
 18 19  1  0  0  0  0
 19 20  2  0  0  0  0
 20 21  1  0  0  0  0
 20 25  1  0  0  0  0
 21 24  2  0  0  0  0
 22 23  2  0  0  0  0
 22 24  1  0  0  0  0
 23 25  1  0  0  0  0
 23 26  1  0  0  0  0
  1 27  1  0  0  0  0
  2 28  1  0  0  0  0
  2 29  1  0  0  0  0
  3 30  1  0  0  0  0
  3 31  1  0  0  0  0
  4 32  1  0  0  0  0
  5 33  1  0  0  0  0
  5 34  1  0  0  0  0
  9 35  1  0  0  0  0
 10 36  1  0  0  0  0
 14 37  1  0  0  0  0
 16 38  1  0  0  0  0
 19 39  1  0  0  0  0
 21 40  1  0  0  0  0
 22 41  1  0  0  0  0
 24 42  1  0  0  0  0
 25 43  1  0  0  0  0
 25 44  1  0  0  0  0
 26 45  1  0  0  0  0
 26 46  1  0  0  0  0
 26 47  1  0  0  0  0
M  END
> <Name>
13

> <IC50[uM]>
0.006

$$$$
13
  -OEChem-05192314333D
 Structure written by MMmdl.
 47 50  0     1  0  0  0  0  0999 V2000
   -2.2088   12.9419  -10.9697 C   0  0  1  0  0  0  0  0  0  0  0  0
   -2.1904   14.4671  -10.9424 C   0  0  0  0  0  0  0  0  0  0  0  0
   -3.6992   12.5876  -10.8377 C   0  0  0  0  0  0  0  0  0  0  0  0
   -1.6826   12.4744  -12.1795 O   0  0  0  0  0  0  0  0  0  0  0  0
   -3.5107   14.9139  -11.6089 C   0  0  0  0  0  0  0  0  0  0  0  0
   -4.3443   13.7200  -11.5243 N   0  0  0  0  0  0  0  0  0  0  0  0
   -6.3525   12.3601  -12.0338 C   0  0  0  0  0  0  0  0  0  0  0  0
   -6.9727   11.7556  -13.1375 C   0  0  0  0  0  0  0  0  0  0  0  0
   -7.7097   10.5633  -13.0339 C   0  0  0  0  0  0  0  0  0  0  0  0
   -6.5001   11.8056  -10.7491 C   0  0  0  0  0  0  0  0  0  0  0  0
   -6.8506   12.3073  -14.3824 O   0  0  0  0  0  0  0  0  0  0  0  0
   -5.5377   13.6382  -12.2001 C   0  0  0  0  0  0  0  0  0  0  0  0
   -5.9500   14.5444  -12.9177 O   0  0  0  0  0  0  0  0  0  0  0  0
   -7.2308   10.6159  -10.6131 C   0  0  0  0  0  0  0  0  0  0  0  0
   -7.8083   10.0113  -11.7524 C   0  0  0  0  0  0  0  0  0  0  0  0
   -8.4200    8.8675  -11.2880 N   0  0  0  0  0  0  0  0  0  0  0  0
   -8.2847    8.7400   -9.9757 N   0  0  0  0  0  0  0  0  0  0  0  0
   -7.6047    9.7473   -9.5145 C   0  0  0  0  0  0  0  0  0  0  0  0
   -7.3264    9.8951   -8.0245 C   0  0  0  0  0  0  0  0  0  0  0  0
   -5.9604   10.4805   -7.7353 C   0  0  0  0  0  0  0  0  0  0  0  0
   -4.8075    9.7596   -8.0491 C   0  0  0  0  0  0  0  0  0  0  0  0
   -3.4358   11.5809   -7.2415 C   0  0  0  0  0  0  0  0  0  0  0  0
   -4.5835   12.3061   -6.9225 C   0  0  0  0  0  0  0  0  0  0  0  0
   -3.5481   10.3107   -7.8024 C   0  0  0  0  0  0  0  0  0  0  0  0
   -5.8471   11.7541   -7.1666 C   0  0  0  0  0  0  0  0  0  0  0  0
   -4.4650   13.6954   -6.3241 C   0  0  0  0  0  0  0  0  0  0  0  0
   -1.6558   12.5461  -10.1051 H   0  0  0  0  0  0  0  0  0  0  0  0
   -2.1418   14.8314   -9.9056 H   0  0  0  0  0  0  0  0  0  0  0  0
   -1.3273   14.8503  -11.5065 H   0  0  0  0  0  0  0  0  0  0  0  0
   -3.9292   11.6343  -11.3361 H   0  0  0  0  0  0  0  0  0  0  0  0
   -4.0052   12.5329   -9.7825 H   0  0  0  0  0  0  0  0  0  0  0  0
   -1.6986   11.5246  -12.1863 H   0  0  0  0  0  0  0  0  0  0  0  0
   -3.9654   15.7526  -11.0614 H   0  0  0  0  0  0  0  0  0  0  0  0
   -3.3451   15.2065  -12.6563 H   0  0  0  0  0  0  0  0  0  0  0  0
   -5.4494   11.7544  -12.1998 H   0  0  0  0  0  0  0  0  0  0  0  0
   -8.1726   10.1006  -13.8930 H   0  0  0  0  0  0  0  0  0  0  0  0
   -6.0607   12.2852   -9.8870 H   0  0  0  0  0  0  0  0  0  0  0  0
   -6.5242   13.1961  -14.3048 H   0  0  0  0  0  0  0  0  0  0  0  0
   -8.0295    9.6121   -7.2551 H   0  0  0  0  0  0  0  0  0  0  0  0
   -4.8582    8.8181   -7.4825 H   0  0  0  0  0  0  0  0  0  0  0  0
   -4.8529    9.5421   -9.1264 H   0  0  0  0  0  0  0  0  0  0  0  0
   -2.4600   12.0040   -7.0537 H   0  0  0  0  0  0  0  0  0  0  0  0
   -2.6581    9.7501   -8.0474 H   0  0  0  0  0  0  0  0  0  0  0  0
   -6.7366   12.3128   -6.9153 H   0  0  0  0  0  0  0  0  0  0  0  0
   -5.4700   14.1039   -6.1424 H   0  0  0  0  0  0  0  0  0  0  0  0
   -3.9148   13.6392   -5.3732 H   0  0  0  0  0  0  0  0  0  0  0  0
   -3.9239   14.3505   -7.0227 H   0  0  0  0  0  0  0  0  0  0  0  0
  1  2  1  0  0  0  0
  1  3  1  0  0  0  0
  1  4  1  0  0  0  0
  2  5  1  0  0  0  0
  3  6  1  0  0  0  0
  5  6  1  0  0  0  0
  6 12  1  0  0  0  0
  7  8  1  0  0  0  0
  7 10  1  0  0  0  0
  7 12  1  0  0  0  0
  8  9  2  0  0  0  0
  8 11  1  0  0  0  0
  9 15  1  0  0  0  0
 10 14  2  0  0  0  0
 12 13  2  0  0  0  0
 14 15  1  0  0  0  0
 14 18  1  0  0  0  0
 15 16  2  0  0  0  0
 16 17  1  0  0  0  0
 17 18  2  0  0  0  0
 18 19  1  0  0  0  0
 19 20  2  0  0  0  0
 20 21  1  0  0  0  0
 20 25  1  0  0  0  0
 21 24  1  0  0  0  0
 22 23  1  0  0  0  0
 22 24  2  0  0  0  0
 23 25  2  0  0  0  0
 23 26  1  0  0  0  0
  1 27  1  0  0  0  0
  2 28  1  0  0  0  0
  2 29  1  0  0  0  0
  3 30  1  0  0  0  0
  3 31  1  0  0  0  0
  4 32  1  0  0  0  0
  5 33  1  0  0  0  0
  5 34  1  0  0  0  0
  7 35  1  0  0  0  0
  9 36  1  0  0  0  0
 10 37  1  0  0  0  0
 11 38  1  0  0  0  0
 19 39  1  0  0  0  0
 21 40  1  0  0  0  0
 21 41  1  0  0  0  0
 22 42  1  0  0  0  0
 24 43  1  0  0  0  0
 25 44  1  0  0  0  0
 26 45  1  0  0  0  0
 26 46  1  0  0  0  0
 26 47  1  0  0  0  0
M  END
> <Name>
13

> <IC50[uM]>
0.006

$$$$
13
  -OEChem-05192314333D
 Structure written by MMmdl.
 47 50  0     1  0  0  0  0  0999 V2000
   -2.2088   12.9419  -10.9697 C   0  0  1  0  0  0  0  0  0  0  0  0
   -2.1904   14.4671  -10.9424 C   0  0  0  0  0  0  0  0  0  0  0  0
   -3.6992   12.5876  -10.8377 C   0  0  0  0  0  0  0  0  0  0  0  0
   -1.6826   12.4744  -12.1795 O   0  0  0  0  0  0  0  0  0  0  0  0
   -3.5107   14.9139  -11.6089 C   0  0  0  0  0  0  0  0  0  0  0  0
   -4.3443   13.7200  -11.5243 N   0  0  0  0  0  0  0  0  0  0  0  0
   -6.3525   12.3601  -12.0338 C   0  0  0  0  0  0  0  0  0  0  0  0
   -6.9727   11.7556  -13.1375 C   0  0  0  0  0  0  0  0  0  0  0  0
   -7.7097   10.5633  -13.0339 C   0  0  0  0  0  0  0  0  0  0  0  0
   -6.5001   11.8056  -10.7491 C   0  0  0  0  0  0  0  0  0  0  0  0
   -6.8506   12.3073  -14.3824 O   0  0  0  0  0  0  0  0  0  0  0  0
   -5.5377   13.6382  -12.2001 C   0  0  0  0  0  0  0  0  0  0  0  0
   -5.9500   14.5444  -12.9177 O   0  0  0  0  0  0  0  0  0  0  0  0
   -7.2308   10.6159  -10.6131 C   0  0  0  0  0  0  0  0  0  0  0  0
   -7.8083   10.0113  -11.7524 C   0  0  0  0  0  0  0  0  0  0  0  0
   -8.4200    8.8675  -11.2880 N   0  0  0  0  0  0  0  0  0  0  0  0
   -8.2847    8.7400   -9.9757 N   0  0  0  0  0  0  0  0  0  0  0  0
   -7.6047    9.7473   -9.5145 C   0  0  0  0  0  0  0  0  0  0  0  0
   -7.3264    9.8951   -8.0245 C   0  0  0  0  0  0  0  0  0  0  0  0
   -5.9604   10.4805   -7.7353 C   0  0  0  0  0  0  0  0  0  0  0  0
   -4.8075    9.7596   -8.0491 C   0  0  0  0  0  0  0  0  0  0  0  0
   -3.4358   11.5809   -7.2415 C   0  0  0  0  0  0  0  0  0  0  0  0
   -4.5835   12.3061   -6.9225 C   0  0  0  0  0  0  0  0  0  0  0  0
   -3.5481   10.3107   -7.8024 C   0  0  0  0  0  0  0  0  0  0  0  0
   -5.8471   11.7541   -7.1666 C   0  0  0  0  0  0  0  0  0  0  0  0
   -4.4650   13.6954   -6.3241 C   0  0  0  0  0  0  0  0  0  0  0  0
   -1.6558   12.5461  -10.1051 H   0  0  0  0  0  0  0  0  0  0  0  0
   -2.1418   14.8314   -9.9056 H   0  0  0  0  0  0  0  0  0  0  0  0
   -1.3273   14.8503  -11.5065 H   0  0  0  0  0  0  0  0  0  0  0  0
   -3.9292   11.6343  -11.3361 H   0  0  0  0  0  0  0  0  0  0  0  0
   -4.0052   12.5329   -9.7825 H   0  0  0  0  0  0  0  0  0  0  0  0
   -1.6986   11.5246  -12.1863 H   0  0  0  0  0  0  0  0  0  0  0  0
   -3.9654   15.7526  -11.0614 H   0  0  0  0  0  0  0  0  0  0  0  0
   -3.3451   15.2065  -12.6563 H   0  0  0  0  0  0  0  0  0  0  0  0
   -8.1726   10.1006  -13.8930 H   0  0  0  0  0  0  0  0  0  0  0  0
   -6.0607   12.2852   -9.8870 H   0  0  0  0  0  0  0  0  0  0  0  0
   -6.5242   13.1961  -14.3048 H   0  0  0  0  0  0  0  0  0  0  0  0
   -6.3117   10.0311  -10.7657 H   0  0  0  0  0  0  0  0  0  0  0  0
   -8.0295    9.6121   -7.2551 H   0  0  0  0  0  0  0  0  0  0  0  0
   -4.8582    8.8181   -7.4825 H   0  0  0  0  0  0  0  0  0  0  0  0
   -4.8529    9.5421   -9.1264 H   0  0  0  0  0  0  0  0  0  0  0  0
   -2.4600   12.0040   -7.0537 H   0  0  0  0  0  0  0  0  0  0  0  0
   -2.6581    9.7501   -8.0474 H   0  0  0  0  0  0  0  0  0  0  0  0
   -6.7366   12.3128   -6.9153 H   0  0  0  0  0  0  0  0  0  0  0  0
   -5.4700   14.1039   -6.1424 H   0  0  0  0  0  0  0  0  0  0  0  0
   -3.9148   13.6392   -5.3732 H   0  0  0  0  0  0  0  0  0  0  0  0
   -3.9239   14.3505   -7.0227 H   0  0  0  0  0  0  0  0  0  0  0  0
  1  2  1  0  0  0  0
  1  3  1  0  0  0  0
  1  4  1  0  0  0  0
  2  5  1  0  0  0  0
  3  6  1  0  0  0  0
  5  6  1  0  0  0  0
  6 12  1  0  0  0  0
  7  8  1  0  0  0  0
  7 10  2  0  0  0  0
  7 12  1  0  0  0  0
  8  9  2  0  0  0  0
  8 11  1  0  0  0  0
  9 15  1  0  0  0  0
 10 14  1  0  0  0  0
 12 13  2  0  0  0  0
 14 15  1  0  0  0  0
 14 18  1  0  0  0  0
 15 16  2  0  0  0  0
 16 17  1  0  0  0  0
 17 18  2  0  0  0  0
 18 19  1  0  0  0  0
 19 20  2  0  0  0  0
 20 21  1  0  0  0  0
 20 25  1  0  0  0  0
 21 24  1  0  0  0  0
 22 23  1  0  0  0  0
 22 24  2  0  0  0  0
 23 25  2  0  0  0  0
 23 26  1  0  0  0  0
  1 27  1  0  0  0  0
  2 28  1  0  0  0  0
  2 29  1  0  0  0  0
  3 30  1  0  0  0  0
  3 31  1  0  0  0  0
  4 32  1  0  0  0  0
  5 33  1  0  0  0  0
  5 34  1  0  0  0  0
  9 35  1  0  0  0  0
 10 36  1  0  0  0  0
 11 37  1  0  0  0  0
 14 38  1  0  0  0  0
 19 39  1  0  0  0  0
 21 40  1  0  0  0  0
 21 41  1  0  0  0  0
 22 42  1  0  0  0  0
 24 43  1  0  0  0  0
 25 44  1  0  0  0  0
 26 45  1  0  0  0  0
 26 46  1  0  0  0  0
 26 47  1  0  0  0  0
M  END
> <Name>
13

> <IC50[uM]>
0.006

$$$$
13
  -OEChem-05192314333D
 Structure written by MMmdl.
 47 50  0     1  0  0  0  0  0999 V2000
   -2.2088   12.9419  -10.9697 C   0  0  1  0  0  0  0  0  0  0  0  0
   -2.1904   14.4671  -10.9424 C   0  0  0  0  0  0  0  0  0  0  0  0
   -3.6992   12.5876  -10.8377 C   0  0  0  0  0  0  0  0  0  0  0  0
   -1.6826   12.4744  -12.1795 O   0  0  0  0  0  0  0  0  0  0  0  0
   -3.5107   14.9139  -11.6089 C   0  0  0  0  0  0  0  0  0  0  0  0
   -4.3443   13.7200  -11.5243 N   0  0  0  0  0  0  0  0  0  0  0  0
   -6.3525   12.3601  -12.0338 C   0  0  0  0  0  0  0  0  0  0  0  0
   -6.9727   11.7556  -13.1375 C   0  0  0  0  0  0  0  0  0  0  0  0
   -7.7097   10.5633  -13.0339 C   0  0  0  0  0  0  0  0  0  0  0  0
   -6.5001   11.8056  -10.7491 C   0  0  0  0  0  0  0  0  0  0  0  0
   -6.8506   12.3073  -14.3824 O   0  0  0  0  0  0  0  0  0  0  0  0
   -5.5377   13.6382  -12.2001 C   0  0  0  0  0  0  0  0  0  0  0  0
   -5.9500   14.5444  -12.9177 O   0  0  0  0  0  0  0  0  0  0  0  0
   -7.2308   10.6159  -10.6131 C   0  0  0  0  0  0  0  0  0  0  0  0
   -7.8083   10.0113  -11.7524 C   0  0  0  0  0  0  0  0  0  0  0  0
   -8.4200    8.8675  -11.2880 N   0  0  0  0  0  0  0  0  0  0  0  0
   -8.2847    8.7400   -9.9757 N   0  0  0  0  0  0  0  0  0  0  0  0
   -7.6047    9.7473   -9.5145 C   0  0  0  0  0  0  0  0  0  0  0  0
   -7.3264    9.8951   -8.0245 C   0  0  0  0  0  0  0  0  0  0  0  0
   -5.9604   10.4805   -7.7353 C   0  0  0  0  0  0  0  0  0  0  0  0
   -4.8075    9.7596   -8.0491 C   0  0  0  0  0  0  0  0  0  0  0  0
   -3.4358   11.5809   -7.2415 C   0  0  0  0  0  0  0  0  0  0  0  0
   -4.5835   12.3061   -6.9225 C   0  0  0  0  0  0  0  0  0  0  0  0
   -3.5481   10.3107   -7.8024 C   0  0  0  0  0  0  0  0  0  0  0  0
   -5.8471   11.7541   -7.1666 C   0  0  0  0  0  0  0  0  0  0  0  0
   -4.4650   13.6954   -6.3241 C   0  0  0  0  0  0  0  0  0  0  0  0
   -1.6558   12.5461  -10.1051 H   0  0  0  0  0  0  0  0  0  0  0  0
   -2.1418   14.8314   -9.9056 H   0  0  0  0  0  0  0  0  0  0  0  0
   -1.3273   14.8503  -11.5065 H   0  0  0  0  0  0  0  0  0  0  0  0
   -3.9292   11.6343  -11.3361 H   0  0  0  0  0  0  0  0  0  0  0  0
   -4.0052   12.5329   -9.7825 H   0  0  0  0  0  0  0  0  0  0  0  0
   -1.6986   11.5246  -12.1863 H   0  0  0  0  0  0  0  0  0  0  0  0
   -3.9654   15.7526  -11.0614 H   0  0  0  0  0  0  0  0  0  0  0  0
   -3.3451   15.2065  -12.6563 H   0  0  0  0  0  0  0  0  0  0  0  0
   -5.4494   11.7544  -12.1998 H   0  0  0  0  0  0  0  0  0  0  0  0
   -8.1726   10.1006  -13.8930 H   0  0  0  0  0  0  0  0  0  0  0  0
   -6.0607   12.2852   -9.8870 H   0  0  0  0  0  0  0  0  0  0  0  0
   -6.5242   13.1961  -14.3048 H   0  0  0  0  0  0  0  0  0  0  0  0
   -8.0295    9.6121   -7.2551 H   0  0  0  0  0  0  0  0  0  0  0  0
   -4.8892    8.7741   -8.4833 H   0  0  0  0  0  0  0  0  0  0  0  0
   -2.8612   12.1924   -7.9527 H   0  0  0  0  0  0  0  0  0  0  0  0
   -2.8628   11.4670   -6.3094 H   0  0  0  0  0  0  0  0  0  0  0  0
   -2.6581    9.7501   -8.0474 H   0  0  0  0  0  0  0  0  0  0  0  0
   -6.7366   12.3128   -6.9153 H   0  0  0  0  0  0  0  0  0  0  0  0
   -5.4700   14.1039   -6.1424 H   0  0  0  0  0  0  0  0  0  0  0  0
   -3.9148   13.6392   -5.3732 H   0  0  0  0  0  0  0  0  0  0  0  0
   -3.9239   14.3505   -7.0227 H   0  0  0  0  0  0  0  0  0  0  0  0
  1  2  1  0  0  0  0
  1  3  1  0  0  0  0
  1  4  1  0  0  0  0
  2  5  1  0  0  0  0
  3  6  1  0  0  0  0
  5  6  1  0  0  0  0
  6 12  1  0  0  0  0
  7  8  1  0  0  0  0
  7 10  1  0  0  0  0
  7 12  1  0  0  0  0
  8  9  2  0  0  0  0
  8 11  1  0  0  0  0
  9 15  1  0  0  0  0
 10 14  2  0  0  0  0
 12 13  2  0  0  0  0
 14 15  1  0  0  0  0
 14 18  1  0  0  0  0
 15 16  2  0  0  0  0
 16 17  1  0  0  0  0
 17 18  2  0  0  0  0
 18 19  1  0  0  0  0
 19 20  2  0  0  0  0
 20 21  1  0  0  0  0
 20 25  1  0  0  0  0
 21 24  2  0  0  0  0
 22 23  1  0  0  0  0
 22 24  1  0  0  0  0
 23 25  2  0  0  0  0
 23 26  1  0  0  0  0
  1 27  1  0  0  0  0
  2 28  1  0  0  0  0
  2 29  1  0  0  0  0
  3 30  1  0  0  0  0
  3 31  1  0  0  0  0
  4 32  1  0  0  0  0
  5 33  1  0  0  0  0
  5 34  1  0  0  0  0
  7 35  1  0  0  0  0
  9 36  1  0  0  0  0
 10 37  1  0  0  0  0
 11 38  1  0  0  0  0
 19 39  1  0  0  0  0
 21 40  1  0  0  0  0
 22 41  1  0  0  0  0
 22 42  1  0  0  0  0
 24 43  1  0  0  0  0
 25 44  1  0  0  0  0
 26 45  1  0  0  0  0
 26 46  1  0  0  0  0
 26 47  1  0  0  0  0
M  END
> <Name>
13

> <IC50[uM]>
0.006

$$$$
13
  -OEChem-05192314333D
 Structure written by MMmdl.
 47 50  0     1  0  0  0  0  0999 V2000
   -2.2088   12.9419  -10.9697 C   0  0  1  0  0  0  0  0  0  0  0  0
   -2.1904   14.4671  -10.9424 C   0  0  0  0  0  0  0  0  0  0  0  0
   -3.6992   12.5876  -10.8377 C   0  0  0  0  0  0  0  0  0  0  0  0
   -1.6826   12.4744  -12.1795 O   0  0  0  0  0  0  0  0  0  0  0  0
   -3.5107   14.9139  -11.6089 C   0  0  0  0  0  0  0  0  0  0  0  0
   -4.3443   13.7200  -11.5243 N   0  0  0  0  0  0  0  0  0  0  0  0
   -6.3525   12.3601  -12.0338 C   0  0  0  0  0  0  0  0  0  0  0  0
   -6.9727   11.7556  -13.1375 C   0  0  0  0  0  0  0  0  0  0  0  0
   -7.7097   10.5633  -13.0339 C   0  0  0  0  0  0  0  0  0  0  0  0
   -6.5001   11.8056  -10.7491 C   0  0  0  0  0  0  0  0  0  0  0  0
   -6.8506   12.3073  -14.3824 O   0  0  0  0  0  0  0  0  0  0  0  0
   -5.5377   13.6382  -12.2001 C   0  0  0  0  0  0  0  0  0  0  0  0
   -5.9500   14.5444  -12.9177 O   0  0  0  0  0  0  0  0  0  0  0  0
   -7.2308   10.6159  -10.6131 C   0  0  0  0  0  0  0  0  0  0  0  0
   -7.8083   10.0113  -11.7524 C   0  0  0  0  0  0  0  0  0  0  0  0
   -8.4200    8.8675  -11.2880 N   0  0  0  0  0  0  0  0  0  0  0  0
   -8.2847    8.7400   -9.9757 N   0  0  0  0  0  0  0  0  0  0  0  0
   -7.6047    9.7473   -9.5145 C   0  0  0  0  0  0  0  0  0  0  0  0
   -7.3264    9.8951   -8.0245 C   0  0  0  0  0  0  0  0  0  0  0  0
   -5.9604   10.4805   -7.7353 C   0  0  0  0  0  0  0  0  0  0  0  0
   -4.8075    9.7596   -8.0491 C   0  0  0  0  0  0  0  0  0  0  0  0
   -3.4358   11.5809   -7.2415 C   0  0  0  0  0  0  0  0  0  0  0  0
   -4.5835   12.3061   -6.9225 C   0  0  0  0  0  0  0  0  0  0  0  0
   -3.5481   10.3107   -7.8024 C   0  0  0  0  0  0  0  0  0  0  0  0
   -5.8471   11.7541   -7.1666 C   0  0  0  0  0  0  0  0  0  0  0  0
   -4.4650   13.6954   -6.3241 C   0  0  0  0  0  0  0  0  0  0  0  0
   -1.6558   12.5461  -10.1051 H   0  0  0  0  0  0  0  0  0  0  0  0
   -2.1418   14.8314   -9.9056 H   0  0  0  0  0  0  0  0  0  0  0  0
   -1.3273   14.8503  -11.5065 H   0  0  0  0  0  0  0  0  0  0  0  0
   -3.9292   11.6343  -11.3361 H   0  0  0  0  0  0  0  0  0  0  0  0
   -4.0052   12.5329   -9.7825 H   0  0  0  0  0  0  0  0  0  0  0  0
   -1.6986   11.5246  -12.1863 H   0  0  0  0  0  0  0  0  0  0  0  0
   -3.9654   15.7526  -11.0614 H   0  0  0  0  0  0  0  0  0  0  0  0
   -3.3451   15.2065  -12.6563 H   0  0  0  0  0  0  0  0  0  0  0  0
   -8.1726   10.1006  -13.8930 H   0  0  0  0  0  0  0  0  0  0  0  0
   -6.0607   12.2852   -9.8870 H   0  0  0  0  0  0  0  0  0  0  0  0
   -6.5242   13.1961  -14.3048 H   0  0  0  0  0  0  0  0  0  0  0  0
   -6.3117   10.0311  -10.7657 H   0  0  0  0  0  0  0  0  0  0  0  0
   -8.0295    9.6121   -7.2551 H   0  0  0  0  0  0  0  0  0  0  0  0
   -4.8892    8.7741   -8.4833 H   0  0  0  0  0  0  0  0  0  0  0  0
   -2.8612   12.1924   -7.9527 H   0  0  0  0  0  0  0  0  0  0  0  0
   -2.8628   11.4670   -6.3094 H   0  0  0  0  0  0  0  0  0  0  0  0
   -2.6581    9.7501   -8.0474 H   0  0  0  0  0  0  0  0  0  0  0  0
   -6.7366   12.3128   -6.9153 H   0  0  0  0  0  0  0  0  0  0  0  0
   -5.4700   14.1039   -6.1424 H   0  0  0  0  0  0  0  0  0  0  0  0
   -3.9148   13.6392   -5.3732 H   0  0  0  0  0  0  0  0  0  0  0  0
   -3.9239   14.3505   -7.0227 H   0  0  0  0  0  0  0  0  0  0  0  0
  1  2  1  0  0  0  0
  1  3  1  0  0  0  0
  1  4  1  0  0  0  0
  2  5  1  0  0  0  0
  3  6  1  0  0  0  0
  5  6  1  0  0  0  0
  6 12  1  0  0  0  0
  7  8  1  0  0  0  0
  7 10  2  0  0  0  0
  7 12  1  0  0  0  0
  8  9  2  0  0  0  0
  8 11  1  0  0  0  0
  9 15  1  0  0  0  0
 10 14  1  0  0  0  0
 12 13  2  0  0  0  0
 14 15  1  0  0  0  0
 14 18  1  0  0  0  0
 15 16  2  0  0  0  0
 16 17  1  0  0  0  0
 17 18  2  0  0  0  0
 18 19  1  0  0  0  0
 19 20  2  0  0  0  0
 20 21  1  0  0  0  0
 20 25  1  0  0  0  0
 21 24  2  0  0  0  0
 22 23  1  0  0  0  0
 22 24  1  0  0  0  0
 23 25  2  0  0  0  0
 23 26  1  0  0  0  0
  1 27  1  0  0  0  0
  2 28  1  0  0  0  0
  2 29  1  0  0  0  0
  3 30  1  0  0  0  0
  3 31  1  0  0  0  0
  4 32  1  0  0  0  0
  5 33  1  0  0  0  0
  5 34  1  0  0  0  0
  9 35  1  0  0  0  0
 10 36  1  0  0  0  0
 11 37  1  0  0  0  0
 14 38  1  0  0  0  0
 19 39  1  0  0  0  0
 21 40  1  0  0  0  0
 22 41  1  0  0  0  0
 22 42  1  0  0  0  0
 24 43  1  0  0  0  0
 25 44  1  0  0  0  0
 26 45  1  0  0  0  0
 26 46  1  0  0  0  0
 26 47  1  0  0  0  0
M  END
> <Name>
13

> <IC50[uM]>
0.006

$$$$
13
  -OEChem-05192314333D
 Structure written by MMmdl.
 47 50  0     1  0  0  0  0  0999 V2000
   -2.2088   12.9419  -10.9697 C   0  0  1  0  0  0  0  0  0  0  0  0
   -2.1904   14.4671  -10.9424 C   0  0  0  0  0  0  0  0  0  0  0  0
   -3.6992   12.5876  -10.8377 C   0  0  0  0  0  0  0  0  0  0  0  0
   -1.6826   12.4744  -12.1795 O   0  0  0  0  0  0  0  0  0  0  0  0
   -3.5107   14.9139  -11.6089 C   0  0  0  0  0  0  0  0  0  0  0  0
   -4.3443   13.7200  -11.5243 N   0  0  0  0  0  0  0  0  0  0  0  0
   -6.3525   12.3601  -12.0338 C   0  0  0  0  0  0  0  0  0  0  0  0
   -6.9727   11.7556  -13.1375 C   0  0  0  0  0  0  0  0  0  0  0  0
   -7.7097   10.5633  -13.0339 C   0  0  0  0  0  0  0  0  0  0  0  0
   -6.5001   11.8056  -10.7491 C   0  0  0  0  0  0  0  0  0  0  0  0
   -6.8506   12.3073  -14.3824 O   0  0  0  0  0  0  0  0  0  0  0  0
   -5.5377   13.6382  -12.2001 C   0  0  0  0  0  0  0  0  0  0  0  0
   -5.9500   14.5444  -12.9177 O   0  0  0  0  0  0  0  0  0  0  0  0
   -7.2308   10.6159  -10.6131 C   0  0  0  0  0  0  0  0  0  0  0  0
   -7.8083   10.0113  -11.7524 C   0  0  0  0  0  0  0  0  0  0  0  0
   -8.4200    8.8675  -11.2880 N   0  0  0  0  0  0  0  0  0  0  0  0
   -8.2847    8.7400   -9.9757 N   0  0  0  0  0  0  0  0  0  0  0  0
   -7.6047    9.7473   -9.5145 C   0  0  0  0  0  0  0  0  0  0  0  0
   -7.3264    9.8951   -8.0245 C   0  0  0  0  0  0  0  0  0  0  0  0
   -5.9604   10.4805   -7.7353 C   0  0  0  0  0  0  0  0  0  0  0  0
   -4.8075    9.7596   -8.0491 C   0  0  0  0  0  0  0  0  0  0  0  0
   -3.4358   11.5809   -7.2415 C   0  0  0  0  0  0  0  0  0  0  0  0
   -4.5835   12.3061   -6.9225 C   0  0  0  0  0  0  0  0  0  0  0  0
   -3.5481   10.3107   -7.8024 C   0  0  0  0  0  0  0  0  0  0  0  0
   -5.8471   11.7541   -7.1666 C   0  0  0  0  0  0  0  0  0  0  0  0
   -4.4650   13.6954   -6.3241 C   0  0  0  0  0  0  0  0  0  0  0  0
   -1.6558   12.5461  -10.1051 H   0  0  0  0  0  0  0  0  0  0  0  0
   -2.1418   14.8314   -9.9056 H   0  0  0  0  0  0  0  0  0  0  0  0
   -1.3273   14.8503  -11.5065 H   0  0  0  0  0  0  0  0  0  0  0  0
   -3.9292   11.6343  -11.3361 H   0  0  0  0  0  0  0  0  0  0  0  0
   -4.0052   12.5329   -9.7825 H   0  0  0  0  0  0  0  0  0  0  0  0
   -1.6986   11.5246  -12.1863 H   0  0  0  0  0  0  0  0  0  0  0  0
   -3.9654   15.7526  -11.0614 H   0  0  0  0  0  0  0  0  0  0  0  0
   -3.3451   15.2065  -12.6563 H   0  0  0  0  0  0  0  0  0  0  0  0
   -5.4494   11.7544  -12.1998 H   0  0  0  0  0  0  0  0  0  0  0  0
   -8.1726   10.1006  -13.8930 H   0  0  0  0  0  0  0  0  0  0  0  0
   -6.0607   12.2852   -9.8870 H   0  0  0  0  0  0  0  0  0  0  0  0
   -6.5242   13.1961  -14.3048 H   0  0  0  0  0  0  0  0  0  0  0  0
   -8.0295    9.6121   -7.2551 H   0  0  0  0  0  0  0  0  0  0  0  0
   -4.8892    8.7741   -8.4833 H   0  0  0  0  0  0  0  0  0  0  0  0
   -2.4600   12.0040   -7.0537 H   0  0  0  0  0  0  0  0  0  0  0  0
   -2.6581    9.7501   -8.0474 H   0  0  0  0  0  0  0  0  0  0  0  0
   -6.3717   12.4489   -7.8389 H   0  0  0  0  0  0  0  0  0  0  0  0
   -6.3685   11.7163   -6.1988 H   0  0  0  0  0  0  0  0  0  0  0  0
   -5.4700   14.1039   -6.1424 H   0  0  0  0  0  0  0  0  0  0  0  0
   -3.9148   13.6392   -5.3732 H   0  0  0  0  0  0  0  0  0  0  0  0
   -3.9239   14.3505   -7.0227 H   0  0  0  0  0  0  0  0  0  0  0  0
  1  2  1  0  0  0  0
  1  3  1  0  0  0  0
  1  4  1  0  0  0  0
  2  5  1  0  0  0  0
  3  6  1  0  0  0  0
  5  6  1  0  0  0  0
  6 12  1  0  0  0  0
  7  8  1  0  0  0  0
  7 10  1  0  0  0  0
  7 12  1  0  0  0  0
  8  9  2  0  0  0  0
  8 11  1  0  0  0  0
  9 15  1  0  0  0  0
 10 14  2  0  0  0  0
 12 13  2  0  0  0  0
 14 15  1  0  0  0  0
 14 18  1  0  0  0  0
 15 16  2  0  0  0  0
 16 17  1  0  0  0  0
 17 18  2  0  0  0  0
 18 19  1  0  0  0  0
 19 20  2  0  0  0  0
 20 21  1  0  0  0  0
 20 25  1  0  0  0  0
 21 24  2  0  0  0  0
 22 23  2  0  0  0  0
 22 24  1  0  0  0  0
 23 25  1  0  0  0  0
 23 26  1  0  0  0  0
  1 27  1  0  0  0  0
  2 28  1  0  0  0  0
  2 29  1  0  0  0  0
  3 30  1  0  0  0  0
  3 31  1  0  0  0  0
  4 32  1  0  0  0  0
  5 33  1  0  0  0  0
  5 34  1  0  0  0  0
  7 35  1  0  0  0  0
  9 36  1  0  0  0  0
 10 37  1  0  0  0  0
 11 38  1  0  0  0  0
 19 39  1  0  0  0  0
 21 40  1  0  0  0  0
 22 41  1  0  0  0  0
 24 42  1  0  0  0  0
 25 43  1  0  0  0  0
 25 44  1  0  0  0  0
 26 45  1  0  0  0  0
 26 46  1  0  0  0  0
 26 47  1  0  0  0  0
M  END
> <Name>
13

> <IC50[uM]>
0.006

$$$$
13
  -OEChem-05192314333D
 Structure written by MMmdl.
 47 50  0     1  0  0  0  0  0999 V2000
   -2.2088   12.9419  -10.9697 C   0  0  1  0  0  0  0  0  0  0  0  0
   -2.1904   14.4671  -10.9424 C   0  0  0  0  0  0  0  0  0  0  0  0
   -3.6992   12.5876  -10.8377 C   0  0  0  0  0  0  0  0  0  0  0  0
   -1.6826   12.4744  -12.1795 O   0  0  0  0  0  0  0  0  0  0  0  0
   -3.5107   14.9139  -11.6089 C   0  0  0  0  0  0  0  0  0  0  0  0
   -4.3443   13.7200  -11.5243 N   0  0  0  0  0  0  0  0  0  0  0  0
   -6.3525   12.3601  -12.0338 C   0  0  0  0  0  0  0  0  0  0  0  0
   -6.9727   11.7556  -13.1375 C   0  0  0  0  0  0  0  0  0  0  0  0
   -7.7097   10.5633  -13.0339 C   0  0  0  0  0  0  0  0  0  0  0  0
   -6.5001   11.8056  -10.7491 C   0  0  0  0  0  0  0  0  0  0  0  0
   -6.8506   12.3073  -14.3824 O   0  0  0  0  0  0  0  0  0  0  0  0
   -5.5377   13.6382  -12.2001 C   0  0  0  0  0  0  0  0  0  0  0  0
   -5.9500   14.5444  -12.9177 O   0  0  0  0  0  0  0  0  0  0  0  0
   -7.2308   10.6159  -10.6131 C   0  0  0  0  0  0  0  0  0  0  0  0
   -7.8083   10.0113  -11.7524 C   0  0  0  0  0  0  0  0  0  0  0  0
   -8.4200    8.8675  -11.2880 N   0  0  0  0  0  0  0  0  0  0  0  0
   -8.2847    8.7400   -9.9757 N   0  0  0  0  0  0  0  0  0  0  0  0
   -7.6047    9.7473   -9.5145 C   0  0  0  0  0  0  0  0  0  0  0  0
   -7.3264    9.8951   -8.0245 C   0  0  0  0  0  0  0  0  0  0  0  0
   -5.9604   10.4805   -7.7353 C   0  0  0  0  0  0  0  0  0  0  0  0
   -4.8075    9.7596   -8.0491 C   0  0  0  0  0  0  0  0  0  0  0  0
   -3.4358   11.5809   -7.2415 C   0  0  0  0  0  0  0  0  0  0  0  0
   -4.5835   12.3061   -6.9225 C   0  0  0  0  0  0  0  0  0  0  0  0
   -3.5481   10.3107   -7.8024 C   0  0  0  0  0  0  0  0  0  0  0  0
   -5.8471   11.7541   -7.1666 C   0  0  0  0  0  0  0  0  0  0  0  0
   -4.4650   13.6954   -6.3241 C   0  0  0  0  0  0  0  0  0  0  0  0
   -1.6558   12.5461  -10.1051 H   0  0  0  0  0  0  0  0  0  0  0  0
   -2.1418   14.8314   -9.9056 H   0  0  0  0  0  0  0  0  0  0  0  0
   -1.3273   14.8503  -11.5065 H   0  0  0  0  0  0  0  0  0  0  0  0
   -3.9292   11.6343  -11.3361 H   0  0  0  0  0  0  0  0  0  0  0  0
   -4.0052   12.5329   -9.7825 H   0  0  0  0  0  0  0  0  0  0  0  0
   -1.6986   11.5246  -12.1863 H   0  0  0  0  0  0  0  0  0  0  0  0
   -3.9654   15.7526  -11.0614 H   0  0  0  0  0  0  0  0  0  0  0  0
   -3.3451   15.2065  -12.6563 H   0  0  0  0  0  0  0  0  0  0  0  0
   -8.1726   10.1006  -13.8930 H   0  0  0  0  0  0  0  0  0  0  0  0
   -6.0607   12.2852   -9.8870 H   0  0  0  0  0  0  0  0  0  0  0  0
   -6.5242   13.1961  -14.3048 H   0  0  0  0  0  0  0  0  0  0  0  0
   -6.3117   10.0311  -10.7657 H   0  0  0  0  0  0  0  0  0  0  0  0
   -8.0295    9.6121   -7.2551 H   0  0  0  0  0  0  0  0  0  0  0  0
   -4.8892    8.7741   -8.4833 H   0  0  0  0  0  0  0  0  0  0  0  0
   -2.4600   12.0040   -7.0537 H   0  0  0  0  0  0  0  0  0  0  0  0
   -2.6581    9.7501   -8.0474 H   0  0  0  0  0  0  0  0  0  0  0  0
   -6.3717   12.4489   -7.8389 H   0  0  0  0  0  0  0  0  0  0  0  0
   -6.3685   11.7163   -6.1988 H   0  0  0  0  0  0  0  0  0  0  0  0
   -5.4700   14.1039   -6.1424 H   0  0  0  0  0  0  0  0  0  0  0  0
   -3.9148   13.6392   -5.3732 H   0  0  0  0  0  0  0  0  0  0  0  0
   -3.9239   14.3505   -7.0227 H   0  0  0  0  0  0  0  0  0  0  0  0
  1  2  1  0  0  0  0
  1  3  1  0  0  0  0
  1  4  1  0  0  0  0
  2  5  1  0  0  0  0
  3  6  1  0  0  0  0
  5  6  1  0  0  0  0
  6 12  1  0  0  0  0
  7  8  1  0  0  0  0
  7 10  2  0  0  0  0
  7 12  1  0  0  0  0
  8  9  2  0  0  0  0
  8 11  1  0  0  0  0
  9 15  1  0  0  0  0
 10 14  1  0  0  0  0
 12 13  2  0  0  0  0
 14 15  1  0  0  0  0
 14 18  1  0  0  0  0
 15 16  2  0  0  0  0
 16 17  1  0  0  0  0
 17 18  2  0  0  0  0
 18 19  1  0  0  0  0
 19 20  2  0  0  0  0
 20 21  1  0  0  0  0
 20 25  1  0  0  0  0
 21 24  2  0  0  0  0
 22 23  2  0  0  0  0
 22 24  1  0  0  0  0
 23 25  1  0  0  0  0
 23 26  1  0  0  0  0
  1 27  1  0  0  0  0
  2 28  1  0  0  0  0
  2 29  1  0  0  0  0
  3 30  1  0  0  0  0
  3 31  1  0  0  0  0
  4 32  1  0  0  0  0
  5 33  1  0  0  0  0
  5 34  1  0  0  0  0
  9 35  1  0  0  0  0
 10 36  1  0  0  0  0
 11 37  1  0  0  0  0
 14 38  1  0  0  0  0
 19 39  1  0  0  0  0
 21 40  1  0  0  0  0
 22 41  1  0  0  0  0
 24 42  1  0  0  0  0
 25 43  1  0  0  0  0
 25 44  1  0  0  0  0
 26 45  1  0  0  0  0
 26 46  1  0  0  0  0
 26 47  1  0  0  0  0
M  END
> <Name>
13

> <IC50[uM]>
0.006

$$$$
13
  -OEChem-05192314333D
 Structure written by MMmdl.
 47 50  0     1  0  0  0  0  0999 V2000
   -2.2088   12.9419  -10.9697 C   0  0  1  0  0  0  0  0  0  0  0  0
   -2.1904   14.4671  -10.9424 C   0  0  0  0  0  0  0  0  0  0  0  0
   -3.6992   12.5876  -10.8377 C   0  0  0  0  0  0  0  0  0  0  0  0
   -1.6826   12.4744  -12.1795 O   0  0  0  0  0  0  0  0  0  0  0  0
   -3.5107   14.9139  -11.6089 C   0  0  0  0  0  0  0  0  0  0  0  0
   -4.3443   13.7200  -11.5243 N   0  0  0  0  0  0  0  0  0  0  0  0
   -6.3525   12.3601  -12.0338 C   0  0  0  0  0  0  0  0  0  0  0  0
   -6.9727   11.7556  -13.1375 C   0  0  0  0  0  0  0  0  0  0  0  0
   -7.7097   10.5633  -13.0339 C   0  0  0  0  0  0  0  0  0  0  0  0
   -6.5001   11.8056  -10.7491 C   0  0  0  0  0  0  0  0  0  0  0  0
   -6.8506   12.3073  -14.3824 O   0  0  0  0  0  0  0  0  0  0  0  0
   -5.5377   13.6382  -12.2001 C   0  0  0  0  0  0  0  0  0  0  0  0
   -5.9500   14.5444  -12.9177 O   0  0  0  0  0  0  0  0  0  0  0  0
   -7.2308   10.6159  -10.6131 C   0  0  0  0  0  0  0  0  0  0  0  0
   -7.8083   10.0113  -11.7524 C   0  0  0  0  0  0  0  0  0  0  0  0
   -8.4200    8.8675  -11.2880 N   0  0  0  0  0  0  0  0  0  0  0  0
   -8.2847    8.7400   -9.9757 N   0  0  0  0  0  0  0  0  0  0  0  0
   -7.6047    9.7473   -9.5145 C   0  0  0  0  0  0  0  0  0  0  0  0
   -7.3264    9.8951   -8.0245 C   0  0  0  0  0  0  0  0  0  0  0  0
   -5.9604   10.4805   -7.7353 C   0  0  0  0  0  0  0  0  0  0  0  0
   -4.8075    9.7596   -8.0491 C   0  0  0  0  0  0  0  0  0  0  0  0
   -3.4358   11.5809   -7.2415 C   0  0  0  0  0  0  0  0  0  0  0  0
   -4.5835   12.3061   -6.9225 C   0  0  0  0  0  0  0  0  0  0  0  0
   -3.5481   10.3107   -7.8024 C   0  0  0  0  0  0  0  0  0  0  0  0
   -5.8471   11.7541   -7.1666 C   0  0  0  0  0  0  0  0  0  0  0  0
   -4.4650   13.6954   -6.3241 C   0  0  0  0  0  0  0  0  0  0  0  0
   -1.6558   12.5461  -10.1051 H   0  0  0  0  0  0  0  0  0  0  0  0
   -2.1418   14.8314   -9.9056 H   0  0  0  0  0  0  0  0  0  0  0  0
   -1.3273   14.8503  -11.5065 H   0  0  0  0  0  0  0  0  0  0  0  0
   -3.9292   11.6343  -11.3361 H   0  0  0  0  0  0  0  0  0  0  0  0
   -4.0052   12.5329   -9.7825 H   0  0  0  0  0  0  0  0  0  0  0  0
   -1.6986   11.5246  -12.1863 H   0  0  0  0  0  0  0  0  0  0  0  0
   -3.9654   15.7526  -11.0614 H   0  0  0  0  0  0  0  0  0  0  0  0
   -3.3451   15.2065  -12.6563 H   0  0  0  0  0  0  0  0  0  0  0  0
   -8.1726   10.1006  -13.8930 H   0  0  0  0  0  0  0  0  0  0  0  0
   -6.0607   12.2852   -9.8870 H   0  0  0  0  0  0  0  0  0  0  0  0
   -6.5242   13.1961  -14.3048 H   0  0  0  0  0  0  0  0  0  0  0  0
   -6.8802    9.4462  -11.9237 H   0  0  0  0  0  0  0  0  0  0  0  0
   -8.0295    9.6121   -7.2551 H   0  0  0  0  0  0  0  0  0  0  0  0
   -4.8582    8.8181   -7.4825 H   0  0  0  0  0  0  0  0  0  0  0  0
   -4.8529    9.5421   -9.1264 H   0  0  0  0  0  0  0  0  0  0  0  0
   -2.4600   12.0040   -7.0537 H   0  0  0  0  0  0  0  0  0  0  0  0
   -2.6581    9.7501   -8.0474 H   0  0  0  0  0  0  0  0  0  0  0  0
   -6.7366   12.3128   -6.9153 H   0  0  0  0  0  0  0  0  0  0  0  0
   -5.4700   14.1039   -6.1424 H   0  0  0  0  0  0  0  0  0  0  0  0
   -3.9148   13.6392   -5.3732 H   0  0  0  0  0  0  0  0  0  0  0  0
   -3.9239   14.3505   -7.0227 H   0  0  0  0  0  0  0  0  0  0  0  0
  1  2  1  0  0  0  0
  1  3  1  0  0  0  0
  1  4  1  0  0  0  0
  2  5  1  0  0  0  0
  3  6  1  0  0  0  0
  5  6  1  0  0  0  0
  6 12  1  0  0  0  0
  7  8  1  0  0  0  0
  7 10  2  0  0  0  0
  7 12  1  0  0  0  0
  8  9  2  0  0  0  0
  8 11  1  0  0  0  0
  9 15  1  0  0  0  0
 10 14  1  0  0  0  0
 12 13  2  0  0  0  0
 14 15  1  0  0  0  0
 14 18  2  0  0  0  0
 15 16  1  0  0  0  0
 16 17  2  0  0  0  0
 17 18  1  0  0  0  0
 18 19  1  0  0  0  0
 19 20  2  0  0  0  0
 20 21  1  0  0  0  0
 20 25  1  0  0  0  0
 21 24  1  0  0  0  0
 22 23  1  0  0  0  0
 22 24  2  0  0  0  0
 23 25  2  0  0  0  0
 23 26  1  0  0  0  0
  1 27  1  0  0  0  0
  2 28  1  0  0  0  0
  2 29  1  0  0  0  0
  3 30  1  0  0  0  0
  3 31  1  0  0  0  0
  4 32  1  0  0  0  0
  5 33  1  0  0  0  0
  5 34  1  0  0  0  0
  9 35  1  0  0  0  0
 10 36  1  0  0  0  0
 11 37  1  0  0  0  0
 15 38  1  0  0  0  0
 19 39  1  0  0  0  0
 21 40  1  0  0  0  0
 21 41  1  0  0  0  0
 22 42  1  0  0  0  0
 24 43  1  0  0  0  0
 25 44  1  0  0  0  0
 26 45  1  0  0  0  0
 26 46  1  0  0  0  0
 26 47  1  0  0  0  0
M  END
> <Name>
13

> <IC50[uM]>
0.006

$$$$
13
  -OEChem-05192314333D
 Structure written by MMmdl.
 47 50  0     1  0  0  0  0  0999 V2000
   -2.2088   12.9419  -10.9697 C   0  0  1  0  0  0  0  0  0  0  0  0
   -2.1904   14.4671  -10.9424 C   0  0  0  0  0  0  0  0  0  0  0  0
   -3.6992   12.5876  -10.8377 C   0  0  0  0  0  0  0  0  0  0  0  0
   -1.6826   12.4744  -12.1795 O   0  0  0  0  0  0  0  0  0  0  0  0
   -3.5107   14.9139  -11.6089 C   0  0  0  0  0  0  0  0  0  0  0  0
   -4.3443   13.7200  -11.5243 N   0  0  0  0  0  0  0  0  0  0  0  0
   -6.3525   12.3601  -12.0338 C   0  0  0  0  0  0  0  0  0  0  0  0
   -6.9727   11.7556  -13.1375 C   0  0  0  0  0  0  0  0  0  0  0  0
   -7.7097   10.5633  -13.0339 C   0  0  0  0  0  0  0  0  0  0  0  0
   -6.5001   11.8056  -10.7491 C   0  0  0  0  0  0  0  0  0  0  0  0
   -6.8506   12.3073  -14.3824 O   0  0  0  0  0  0  0  0  0  0  0  0
   -5.5377   13.6382  -12.2001 C   0  0  0  0  0  0  0  0  0  0  0  0
   -5.9500   14.5444  -12.9177 O   0  0  0  0  0  0  0  0  0  0  0  0
   -7.2308   10.6159  -10.6131 C   0  0  0  0  0  0  0  0  0  0  0  0
   -7.8083   10.0113  -11.7524 C   0  0  0  0  0  0  0  0  0  0  0  0
   -8.4200    8.8675  -11.2880 N   0  0  0  0  0  0  0  0  0  0  0  0
   -8.2847    8.7400   -9.9757 N   0  0  0  0  0  0  0  0  0  0  0  0
   -7.6047    9.7473   -9.5145 C   0  0  0  0  0  0  0  0  0  0  0  0
   -7.3264    9.8951   -8.0245 C   0  0  0  0  0  0  0  0  0  0  0  0
   -5.9604   10.4805   -7.7353 C   0  0  0  0  0  0  0  0  0  0  0  0
   -4.8075    9.7596   -8.0491 C   0  0  0  0  0  0  0  0  0  0  0  0
   -3.4358   11.5809   -7.2415 C   0  0  0  0  0  0  0  0  0  0  0  0
   -4.5835   12.3061   -6.9225 C   0  0  0  0  0  0  0  0  0  0  0  0
   -3.5481   10.3107   -7.8024 C   0  0  0  0  0  0  0  0  0  0  0  0
   -5.8471   11.7541   -7.1666 C   0  0  0  0  0  0  0  0  0  0  0  0
   -4.4650   13.6954   -6.3241 C   0  0  0  0  0  0  0  0  0  0  0  0
   -1.6558   12.5461  -10.1051 H   0  0  0  0  0  0  0  0  0  0  0  0
   -2.1418   14.8314   -9.9056 H   0  0  0  0  0  0  0  0  0  0  0  0
   -1.3273   14.8503  -11.5065 H   0  0  0  0  0  0  0  0  0  0  0  0
   -3.9292   11.6343  -11.3361 H   0  0  0  0  0  0  0  0  0  0  0  0
   -4.0052   12.5329   -9.7825 H   0  0  0  0  0  0  0  0  0  0  0  0
   -1.6986   11.5246  -12.1863 H   0  0  0  0  0  0  0  0  0  0  0  0
   -3.9654   15.7526  -11.0614 H   0  0  0  0  0  0  0  0  0  0  0  0
   -3.3451   15.2065  -12.6563 H   0  0  0  0  0  0  0  0  0  0  0  0
   -7.8845   12.3440  -12.9574 H   0  0  0  0  0  0  0  0  0  0  0  0
   -8.1726   10.1006  -13.8930 H   0  0  0  0  0  0  0  0  0  0  0  0
   -6.0607   12.2852   -9.8870 H   0  0  0  0  0  0  0  0  0  0  0  0
   -6.5242   13.1961  -14.3048 H   0  0  0  0  0  0  0  0  0  0  0  0
   -8.0295    9.6121   -7.2551 H   0  0  0  0  0  0  0  0  0  0  0  0
   -4.8582    8.8181   -7.4825 H   0  0  0  0  0  0  0  0  0  0  0  0
   -4.8529    9.5421   -9.1264 H   0  0  0  0  0  0  0  0  0  0  0  0
   -2.4600   12.0040   -7.0537 H   0  0  0  0  0  0  0  0  0  0  0  0
   -2.6581    9.7501   -8.0474 H   0  0  0  0  0  0  0  0  0  0  0  0
   -6.7366   12.3128   -6.9153 H   0  0  0  0  0  0  0  0  0  0  0  0
   -5.4700   14.1039   -6.1424 H   0  0  0  0  0  0  0  0  0  0  0  0
   -3.9148   13.6392   -5.3732 H   0  0  0  0  0  0  0  0  0  0  0  0
   -3.9239   14.3505   -7.0227 H   0  0  0  0  0  0  0  0  0  0  0  0
  1  2  1  0  0  0  0
  1  3  1  0  0  0  0
  1  4  1  0  0  0  0
  2  5  1  0  0  0  0
  3  6  1  0  0  0  0
  5  6  1  0  0  0  0
  6 12  1  0  0  0  0
  7  8  1  0  0  0  0
  7 10  2  0  0  0  0
  7 12  1  0  0  0  0
  8  9  1  0  0  0  0
  8 11  1  0  0  0  0
  9 15  2  0  0  0  0
 10 14  1  0  0  0  0
 12 13  2  0  0  0  0
 14 15  1  0  0  0  0
 14 18  2  0  0  0  0
 15 16  1  0  0  0  0
 16 17  2  0  0  0  0
 17 18  1  0  0  0  0
 18 19  1  0  0  0  0
 19 20  2  0  0  0  0
 20 21  1  0  0  0  0
 20 25  1  0  0  0  0
 21 24  1  0  0  0  0
 22 23  1  0  0  0  0
 22 24  2  0  0  0  0
 23 25  2  0  0  0  0
 23 26  1  0  0  0  0
  1 27  1  0  0  0  0
  2 28  1  0  0  0  0
  2 29  1  0  0  0  0
  3 30  1  0  0  0  0
  3 31  1  0  0  0  0
  4 32  1  0  0  0  0
  5 33  1  0  0  0  0
  5 34  1  0  0  0  0
  8 35  1  0  0  0  0
  9 36  1  0  0  0  0
 10 37  1  0  0  0  0
 11 38  1  0  0  0  0
 19 39  1  0  0  0  0
 21 40  1  0  0  0  0
 21 41  1  0  0  0  0
 22 42  1  0  0  0  0
 24 43  1  0  0  0  0
 25 44  1  0  0  0  0
 26 45  1  0  0  0  0
 26 46  1  0  0  0  0
 26 47  1  0  0  0  0
M  END
> <Name>
13

> <IC50[uM]>
0.006

$$$$
13
  -OEChem-05192314333D
 Structure written by MMmdl.
 47 50  0     1  0  0  0  0  0999 V2000
   -2.2088   12.9419  -10.9697 C   0  0  1  0  0  0  0  0  0  0  0  0
   -2.1904   14.4671  -10.9424 C   0  0  0  0  0  0  0  0  0  0  0  0
   -3.6992   12.5876  -10.8377 C   0  0  0  0  0  0  0  0  0  0  0  0
   -1.6826   12.4744  -12.1795 O   0  0  0  0  0  0  0  0  0  0  0  0
   -3.5107   14.9139  -11.6089 C   0  0  0  0  0  0  0  0  0  0  0  0
   -4.3443   13.7200  -11.5243 N   0  0  0  0  0  0  0  0  0  0  0  0
   -6.3525   12.3601  -12.0338 C   0  0  0  0  0  0  0  0  0  0  0  0
   -6.9727   11.7556  -13.1375 C   0  0  0  0  0  0  0  0  0  0  0  0
   -7.7097   10.5633  -13.0339 C   0  0  0  0  0  0  0  0  0  0  0  0
   -6.5001   11.8056  -10.7491 C   0  0  0  0  0  0  0  0  0  0  0  0
   -6.8506   12.3073  -14.3824 O   0  0  0  0  0  0  0  0  0  0  0  0
   -5.5377   13.6382  -12.2001 C   0  0  0  0  0  0  0  0  0  0  0  0
   -5.9500   14.5444  -12.9177 O   0  0  0  0  0  0  0  0  0  0  0  0
   -7.2308   10.6159  -10.6131 C   0  0  0  0  0  0  0  0  0  0  0  0
   -7.8083   10.0113  -11.7524 C   0  0  0  0  0  0  0  0  0  0  0  0
   -8.4200    8.8675  -11.2880 N   0  0  0  0  0  0  0  0  0  0  0  0
   -8.2847    8.7400   -9.9757 N   0  0  0  0  0  0  0  0  0  0  0  0
   -7.6047    9.7473   -9.5145 C   0  0  0  0  0  0  0  0  0  0  0  0
   -7.3264    9.8951   -8.0245 C   0  0  0  0  0  0  0  0  0  0  0  0
   -5.9604   10.4805   -7.7353 C   0  0  0  0  0  0  0  0  0  0  0  0
   -4.8075    9.7596   -8.0491 C   0  0  0  0  0  0  0  0  0  0  0  0
   -3.4358   11.5809   -7.2415 C   0  0  0  0  0  0  0  0  0  0  0  0
   -4.5835   12.3061   -6.9225 C   0  0  0  0  0  0  0  0  0  0  0  0
   -3.5481   10.3107   -7.8024 C   0  0  0  0  0  0  0  0  0  0  0  0
   -5.8471   11.7541   -7.1666 C   0  0  0  0  0  0  0  0  0  0  0  0
   -4.4650   13.6954   -6.3241 C   0  0  0  0  0  0  0  0  0  0  0  0
   -1.6558   12.5461  -10.1051 H   0  0  0  0  0  0  0  0  0  0  0  0
   -2.1418   14.8314   -9.9056 H   0  0  0  0  0  0  0  0  0  0  0  0
   -1.3273   14.8503  -11.5065 H   0  0  0  0  0  0  0  0  0  0  0  0
   -3.9292   11.6343  -11.3361 H   0  0  0  0  0  0  0  0  0  0  0  0
   -4.0052   12.5329   -9.7825 H   0  0  0  0  0  0  0  0  0  0  0  0
   -1.6986   11.5246  -12.1863 H   0  0  0  0  0  0  0  0  0  0  0  0
   -3.9654   15.7526  -11.0614 H   0  0  0  0  0  0  0  0  0  0  0  0
   -3.3451   15.2065  -12.6563 H   0  0  0  0  0  0  0  0  0  0  0  0
   -8.1726   10.1006  -13.8930 H   0  0  0  0  0  0  0  0  0  0  0  0
   -6.0607   12.2852   -9.8870 H   0  0  0  0  0  0  0  0  0  0  0  0
   -6.5242   13.1961  -14.3048 H   0  0  0  0  0  0  0  0  0  0  0  0
   -6.8802    9.4462  -11.9237 H   0  0  0  0  0  0  0  0  0  0  0  0
   -8.0295    9.6121   -7.2551 H   0  0  0  0  0  0  0  0  0  0  0  0
   -4.8892    8.7741   -8.4833 H   0  0  0  0  0  0  0  0  0  0  0  0
   -2.8612   12.1924   -7.9527 H   0  0  0  0  0  0  0  0  0  0  0  0
   -2.8628   11.4670   -6.3094 H   0  0  0  0  0  0  0  0  0  0  0  0
   -2.6581    9.7501   -8.0474 H   0  0  0  0  0  0  0  0  0  0  0  0
   -6.7366   12.3128   -6.9153 H   0  0  0  0  0  0  0  0  0  0  0  0
   -5.4700   14.1039   -6.1424 H   0  0  0  0  0  0  0  0  0  0  0  0
   -3.9148   13.6392   -5.3732 H   0  0  0  0  0  0  0  0  0  0  0  0
   -3.9239   14.3505   -7.0227 H   0  0  0  0  0  0  0  0  0  0  0  0
  1  2  1  0  0  0  0
  1  3  1  0  0  0  0
  1  4  1  0  0  0  0
  2  5  1  0  0  0  0
  3  6  1  0  0  0  0
  5  6  1  0  0  0  0
  6 12  1  0  0  0  0
  7  8  1  0  0  0  0
  7 10  2  0  0  0  0
  7 12  1  0  0  0  0
  8  9  2  0  0  0  0
  8 11  1  0  0  0  0
  9 15  1  0  0  0  0
 10 14  1  0  0  0  0
 12 13  2  0  0  0  0
 14 15  1  0  0  0  0
 14 18  2  0  0  0  0
 15 16  1  0  0  0  0
 16 17  2  0  0  0  0
 17 18  1  0  0  0  0
 18 19  1  0  0  0  0
 19 20  2  0  0  0  0
 20 21  1  0  0  0  0
 20 25  1  0  0  0  0
 21 24  2  0  0  0  0
 22 23  1  0  0  0  0
 22 24  1  0  0  0  0
 23 25  2  0  0  0  0
 23 26  1  0  0  0  0
  1 27  1  0  0  0  0
  2 28  1  0  0  0  0
  2 29  1  0  0  0  0
  3 30  1  0  0  0  0
  3 31  1  0  0  0  0
  4 32  1  0  0  0  0
  5 33  1  0  0  0  0
  5 34  1  0  0  0  0
  9 35  1  0  0  0  0
 10 36  1  0  0  0  0
 11 37  1  0  0  0  0
 15 38  1  0  0  0  0
 19 39  1  0  0  0  0
 21 40  1  0  0  0  0
 22 41  1  0  0  0  0
 22 42  1  0  0  0  0
 24 43  1  0  0  0  0
 25 44  1  0  0  0  0
 26 45  1  0  0  0  0
 26 46  1  0  0  0  0
 26 47  1  0  0  0  0
M  END
> <Name>
13

> <IC50[uM]>
0.006

$$$$
13
  -OEChem-05192314333D
 Structure written by MMmdl.
 47 50  0     1  0  0  0  0  0999 V2000
   -2.2088   12.9419  -10.9697 C   0  0  1  0  0  0  0  0  0  0  0  0
   -2.1904   14.4671  -10.9424 C   0  0  0  0  0  0  0  0  0  0  0  0
   -3.6992   12.5876  -10.8377 C   0  0  0  0  0  0  0  0  0  0  0  0
   -1.6826   12.4744  -12.1795 O   0  0  0  0  0  0  0  0  0  0  0  0
   -3.5107   14.9139  -11.6089 C   0  0  0  0  0  0  0  0  0  0  0  0
   -4.3443   13.7200  -11.5243 N   0  0  0  0  0  0  0  0  0  0  0  0
   -6.3525   12.3601  -12.0338 C   0  0  0  0  0  0  0  0  0  0  0  0
   -6.9727   11.7556  -13.1375 C   0  0  0  0  0  0  0  0  0  0  0  0
   -7.7097   10.5633  -13.0339 C   0  0  0  0  0  0  0  0  0  0  0  0
   -6.5001   11.8056  -10.7491 C   0  0  0  0  0  0  0  0  0  0  0  0
   -6.8506   12.3073  -14.3824 O   0  0  0  0  0  0  0  0  0  0  0  0
   -5.5377   13.6382  -12.2001 C   0  0  0  0  0  0  0  0  0  0  0  0
   -5.9500   14.5444  -12.9177 O   0  0  0  0  0  0  0  0  0  0  0  0
   -7.2308   10.6159  -10.6131 C   0  0  0  0  0  0  0  0  0  0  0  0
   -7.8083   10.0113  -11.7524 C   0  0  0  0  0  0  0  0  0  0  0  0
   -8.4200    8.8675  -11.2880 N   0  0  0  0  0  0  0  0  0  0  0  0
   -8.2847    8.7400   -9.9757 N   0  0  0  0  0  0  0  0  0  0  0  0
   -7.6047    9.7473   -9.5145 C   0  0  0  0  0  0  0  0  0  0  0  0
   -7.3264    9.8951   -8.0245 C   0  0  0  0  0  0  0  0  0  0  0  0
   -5.9604   10.4805   -7.7353 C   0  0  0  0  0  0  0  0  0  0  0  0
   -4.8075    9.7596   -8.0491 C   0  0  0  0  0  0  0  0  0  0  0  0
   -3.4358   11.5809   -7.2415 C   0  0  0  0  0  0  0  0  0  0  0  0
   -4.5835   12.3061   -6.9225 C   0  0  0  0  0  0  0  0  0  0  0  0
   -3.5481   10.3107   -7.8024 C   0  0  0  0  0  0  0  0  0  0  0  0
   -5.8471   11.7541   -7.1666 C   0  0  0  0  0  0  0  0  0  0  0  0
   -4.4650   13.6954   -6.3241 C   0  0  0  0  0  0  0  0  0  0  0  0
   -1.6558   12.5461  -10.1051 H   0  0  0  0  0  0  0  0  0  0  0  0
   -2.1418   14.8314   -9.9056 H   0  0  0  0  0  0  0  0  0  0  0  0
   -1.3273   14.8503  -11.5065 H   0  0  0  0  0  0  0  0  0  0  0  0
   -3.9292   11.6343  -11.3361 H   0  0  0  0  0  0  0  0  0  0  0  0
   -4.0052   12.5329   -9.7825 H   0  0  0  0  0  0  0  0  0  0  0  0
   -1.6986   11.5246  -12.1863 H   0  0  0  0  0  0  0  0  0  0  0  0
   -3.9654   15.7526  -11.0614 H   0  0  0  0  0  0  0  0  0  0  0  0
   -3.3451   15.2065  -12.6563 H   0  0  0  0  0  0  0  0  0  0  0  0
   -7.8845   12.3440  -12.9574 H   0  0  0  0  0  0  0  0  0  0  0  0
   -8.1726   10.1006  -13.8930 H   0  0  0  0  0  0  0  0  0  0  0  0
   -6.0607   12.2852   -9.8870 H   0  0  0  0  0  0  0  0  0  0  0  0
   -6.5242   13.1961  -14.3048 H   0  0  0  0  0  0  0  0  0  0  0  0
   -8.0295    9.6121   -7.2551 H   0  0  0  0  0  0  0  0  0  0  0  0
   -4.8892    8.7741   -8.4833 H   0  0  0  0  0  0  0  0  0  0  0  0
   -2.8612   12.1924   -7.9527 H   0  0  0  0  0  0  0  0  0  0  0  0
   -2.8628   11.4670   -6.3094 H   0  0  0  0  0  0  0  0  0  0  0  0
   -2.6581    9.7501   -8.0474 H   0  0  0  0  0  0  0  0  0  0  0  0
   -6.7366   12.3128   -6.9153 H   0  0  0  0  0  0  0  0  0  0  0  0
   -5.4700   14.1039   -6.1424 H   0  0  0  0  0  0  0  0  0  0  0  0
   -3.9148   13.6392   -5.3732 H   0  0  0  0  0  0  0  0  0  0  0  0
   -3.9239   14.3505   -7.0227 H   0  0  0  0  0  0  0  0  0  0  0  0
  1  2  1  0  0  0  0
  1  3  1  0  0  0  0
  1  4  1  0  0  0  0
  2  5  1  0  0  0  0
  3  6  1  0  0  0  0
  5  6  1  0  0  0  0
  6 12  1  0  0  0  0
  7  8  1  0  0  0  0
  7 10  2  0  0  0  0
  7 12  1  0  0  0  0
  8  9  1  0  0  0  0
  8 11  1  0  0  0  0
  9 15  2  0  0  0  0
 10 14  1  0  0  0  0
 12 13  2  0  0  0  0
 14 15  1  0  0  0  0
 14 18  2  0  0  0  0
 15 16  1  0  0  0  0
 16 17  2  0  0  0  0
 17 18  1  0  0  0  0
 18 19  1  0  0  0  0
 19 20  2  0  0  0  0
 20 21  1  0  0  0  0
 20 25  1  0  0  0  0
 21 24  2  0  0  0  0
 22 23  1  0  0  0  0
 22 24  1  0  0  0  0
 23 25  2  0  0  0  0
 23 26  1  0  0  0  0
  1 27  1  0  0  0  0
  2 28  1  0  0  0  0
  2 29  1  0  0  0  0
  3 30  1  0  0  0  0
  3 31  1  0  0  0  0
  4 32  1  0  0  0  0
  5 33  1  0  0  0  0
  5 34  1  0  0  0  0
  8 35  1  0  0  0  0
  9 36  1  0  0  0  0
 10 37  1  0  0  0  0
 11 38  1  0  0  0  0
 19 39  1  0  0  0  0
 21 40  1  0  0  0  0
 22 41  1  0  0  0  0
 22 42  1  0  0  0  0
 24 43  1  0  0  0  0
 25 44  1  0  0  0  0
 26 45  1  0  0  0  0
 26 46  1  0  0  0  0
 26 47  1  0  0  0  0
M  END
> <Name>
13

> <IC50[uM]>
0.006

$$$$
13
  -OEChem-05192314333D
 Structure written by MMmdl.
 47 50  0     1  0  0  0  0  0999 V2000
   -2.2088   12.9419  -10.9697 C   0  0  1  0  0  0  0  0  0  0  0  0
   -2.1904   14.4671  -10.9424 C   0  0  0  0  0  0  0  0  0  0  0  0
   -3.6992   12.5876  -10.8377 C   0  0  0  0  0  0  0  0  0  0  0  0
   -1.6826   12.4744  -12.1795 O   0  0  0  0  0  0  0  0  0  0  0  0
   -3.5107   14.9139  -11.6089 C   0  0  0  0  0  0  0  0  0  0  0  0
   -4.3443   13.7200  -11.5243 N   0  0  0  0  0  0  0  0  0  0  0  0
   -6.3525   12.3601  -12.0338 C   0  0  0  0  0  0  0  0  0  0  0  0
   -6.9727   11.7556  -13.1375 C   0  0  0  0  0  0  0  0  0  0  0  0
   -7.7097   10.5633  -13.0339 C   0  0  0  0  0  0  0  0  0  0  0  0
   -6.5001   11.8056  -10.7491 C   0  0  0  0  0  0  0  0  0  0  0  0
   -6.8506   12.3073  -14.3824 O   0  0  0  0  0  0  0  0  0  0  0  0
   -5.5377   13.6382  -12.2001 C   0  0  0  0  0  0  0  0  0  0  0  0
   -5.9500   14.5444  -12.9177 O   0  0  0  0  0  0  0  0  0  0  0  0
   -7.2308   10.6159  -10.6131 C   0  0  0  0  0  0  0  0  0  0  0  0
   -7.8083   10.0113  -11.7524 C   0  0  0  0  0  0  0  0  0  0  0  0
   -8.4200    8.8675  -11.2880 N   0  0  0  0  0  0  0  0  0  0  0  0
   -8.2847    8.7400   -9.9757 N   0  0  0  0  0  0  0  0  0  0  0  0
   -7.6047    9.7473   -9.5145 C   0  0  0  0  0  0  0  0  0  0  0  0
   -7.3264    9.8951   -8.0245 C   0  0  0  0  0  0  0  0  0  0  0  0
   -5.9604   10.4805   -7.7353 C   0  0  0  0  0  0  0  0  0  0  0  0
   -4.8075    9.7596   -8.0491 C   0  0  0  0  0  0  0  0  0  0  0  0
   -3.4358   11.5809   -7.2415 C   0  0  0  0  0  0  0  0  0  0  0  0
   -4.5835   12.3061   -6.9225 C   0  0  0  0  0  0  0  0  0  0  0  0
   -3.5481   10.3107   -7.8024 C   0  0  0  0  0  0  0  0  0  0  0  0
   -5.8471   11.7541   -7.1666 C   0  0  0  0  0  0  0  0  0  0  0  0
   -4.4650   13.6954   -6.3241 C   0  0  0  0  0  0  0  0  0  0  0  0
   -1.6558   12.5461  -10.1051 H   0  0  0  0  0  0  0  0  0  0  0  0
   -2.1418   14.8314   -9.9056 H   0  0  0  0  0  0  0  0  0  0  0  0
   -1.3273   14.8503  -11.5065 H   0  0  0  0  0  0  0  0  0  0  0  0
   -3.9292   11.6343  -11.3361 H   0  0  0  0  0  0  0  0  0  0  0  0
   -4.0052   12.5329   -9.7825 H   0  0  0  0  0  0  0  0  0  0  0  0
   -1.6986   11.5246  -12.1863 H   0  0  0  0  0  0  0  0  0  0  0  0
   -3.9654   15.7526  -11.0614 H   0  0  0  0  0  0  0  0  0  0  0  0
   -3.3451   15.2065  -12.6563 H   0  0  0  0  0  0  0  0  0  0  0  0
   -8.1726   10.1006  -13.8930 H   0  0  0  0  0  0  0  0  0  0  0  0
   -6.0607   12.2852   -9.8870 H   0  0  0  0  0  0  0  0  0  0  0  0
   -6.5242   13.1961  -14.3048 H   0  0  0  0  0  0  0  0  0  0  0  0
   -6.8802    9.4462  -11.9237 H   0  0  0  0  0  0  0  0  0  0  0  0
   -8.0295    9.6121   -7.2551 H   0  0  0  0  0  0  0  0  0  0  0  0
   -4.8892    8.7741   -8.4833 H   0  0  0  0  0  0  0  0  0  0  0  0
   -2.4600   12.0040   -7.0537 H   0  0  0  0  0  0  0  0  0  0  0  0
   -2.6581    9.7501   -8.0474 H   0  0  0  0  0  0  0  0  0  0  0  0
   -6.3717   12.4489   -7.8389 H   0  0  0  0  0  0  0  0  0  0  0  0
   -6.3685   11.7163   -6.1988 H   0  0  0  0  0  0  0  0  0  0  0  0
   -5.4700   14.1039   -6.1424 H   0  0  0  0  0  0  0  0  0  0  0  0
   -3.9148   13.6392   -5.3732 H   0  0  0  0  0  0  0  0  0  0  0  0
   -3.9239   14.3505   -7.0227 H   0  0  0  0  0  0  0  0  0  0  0  0
  1  2  1  0  0  0  0
  1  3  1  0  0  0  0
  1  4  1  0  0  0  0
  2  5  1  0  0  0  0
  3  6  1  0  0  0  0
  5  6  1  0  0  0  0
  6 12  1  0  0  0  0
  7  8  1  0  0  0  0
  7 10  2  0  0  0  0
  7 12  1  0  0  0  0
  8  9  2  0  0  0  0
  8 11  1  0  0  0  0
  9 15  1  0  0  0  0
 10 14  1  0  0  0  0
 12 13  2  0  0  0  0
 14 15  1  0  0  0  0
 14 18  2  0  0  0  0
 15 16  1  0  0  0  0
 16 17  2  0  0  0  0
 17 18  1  0  0  0  0
 18 19  1  0  0  0  0
 19 20  2  0  0  0  0
 20 21  1  0  0  0  0
 20 25  1  0  0  0  0
 21 24  2  0  0  0  0
 22 23  2  0  0  0  0
 22 24  1  0  0  0  0
 23 25  1  0  0  0  0
 23 26  1  0  0  0  0
  1 27  1  0  0  0  0
  2 28  1  0  0  0  0
  2 29  1  0  0  0  0
  3 30  1  0  0  0  0
  3 31  1  0  0  0  0
  4 32  1  0  0  0  0
  5 33  1  0  0  0  0
  5 34  1  0  0  0  0
  9 35  1  0  0  0  0
 10 36  1  0  0  0  0
 11 37  1  0  0  0  0
 15 38  1  0  0  0  0
 19 39  1  0  0  0  0
 21 40  1  0  0  0  0
 22 41  1  0  0  0  0
 24 42  1  0  0  0  0
 25 43  1  0  0  0  0
 25 44  1  0  0  0  0
 26 45  1  0  0  0  0
 26 46  1  0  0  0  0
 26 47  1  0  0  0  0
M  END
> <Name>
13

> <IC50[uM]>
0.006

$$$$
13
  -OEChem-05192314333D
 Structure written by MMmdl.
 47 50  0     1  0  0  0  0  0999 V2000
   -2.2088   12.9419  -10.9697 C   0  0  1  0  0  0  0  0  0  0  0  0
   -2.1904   14.4671  -10.9424 C   0  0  0  0  0  0  0  0  0  0  0  0
   -3.6992   12.5876  -10.8377 C   0  0  0  0  0  0  0  0  0  0  0  0
   -1.6826   12.4744  -12.1795 O   0  0  0  0  0  0  0  0  0  0  0  0
   -3.5107   14.9139  -11.6089 C   0  0  0  0  0  0  0  0  0  0  0  0
   -4.3443   13.7200  -11.5243 N   0  0  0  0  0  0  0  0  0  0  0  0
   -6.3525   12.3601  -12.0338 C   0  0  0  0  0  0  0  0  0  0  0  0
   -6.9727   11.7556  -13.1375 C   0  0  0  0  0  0  0  0  0  0  0  0
   -7.7097   10.5633  -13.0339 C   0  0  0  0  0  0  0  0  0  0  0  0
   -6.5001   11.8056  -10.7491 C   0  0  0  0  0  0  0  0  0  0  0  0
   -6.8506   12.3073  -14.3824 O   0  0  0  0  0  0  0  0  0  0  0  0
   -5.5377   13.6382  -12.2001 C   0  0  0  0  0  0  0  0  0  0  0  0
   -5.9500   14.5444  -12.9177 O   0  0  0  0  0  0  0  0  0  0  0  0
   -7.2308   10.6159  -10.6131 C   0  0  0  0  0  0  0  0  0  0  0  0
   -7.8083   10.0113  -11.7524 C   0  0  0  0  0  0  0  0  0  0  0  0
   -8.4200    8.8675  -11.2880 N   0  0  0  0  0  0  0  0  0  0  0  0
   -8.2847    8.7400   -9.9757 N   0  0  0  0  0  0  0  0  0  0  0  0
   -7.6047    9.7473   -9.5145 C   0  0  0  0  0  0  0  0  0  0  0  0
   -7.3264    9.8951   -8.0245 C   0  0  0  0  0  0  0  0  0  0  0  0
   -5.9604   10.4805   -7.7353 C   0  0  0  0  0  0  0  0  0  0  0  0
   -4.8075    9.7596   -8.0491 C   0  0  0  0  0  0  0  0  0  0  0  0
   -3.4358   11.5809   -7.2415 C   0  0  0  0  0  0  0  0  0  0  0  0
   -4.5835   12.3061   -6.9225 C   0  0  0  0  0  0  0  0  0  0  0  0
   -3.5481   10.3107   -7.8024 C   0  0  0  0  0  0  0  0  0  0  0  0
   -5.8471   11.7541   -7.1666 C   0  0  0  0  0  0  0  0  0  0  0  0
   -4.4650   13.6954   -6.3241 C   0  0  0  0  0  0  0  0  0  0  0  0
   -1.6558   12.5461  -10.1051 H   0  0  0  0  0  0  0  0  0  0  0  0
   -2.1418   14.8314   -9.9056 H   0  0  0  0  0  0  0  0  0  0  0  0
   -1.3273   14.8503  -11.5065 H   0  0  0  0  0  0  0  0  0  0  0  0
   -3.9292   11.6343  -11.3361 H   0  0  0  0  0  0  0  0  0  0  0  0
   -4.0052   12.5329   -9.7825 H   0  0  0  0  0  0  0  0  0  0  0  0
   -1.6986   11.5246  -12.1863 H   0  0  0  0  0  0  0  0  0  0  0  0
   -3.9654   15.7526  -11.0614 H   0  0  0  0  0  0  0  0  0  0  0  0
   -3.3451   15.2065  -12.6563 H   0  0  0  0  0  0  0  0  0  0  0  0
   -7.8845   12.3440  -12.9574 H   0  0  0  0  0  0  0  0  0  0  0  0
   -8.1726   10.1006  -13.8930 H   0  0  0  0  0  0  0  0  0  0  0  0
   -6.0607   12.2852   -9.8870 H   0  0  0  0  0  0  0  0  0  0  0  0
   -6.5242   13.1961  -14.3048 H   0  0  0  0  0  0  0  0  0  0  0  0
   -8.0295    9.6121   -7.2551 H   0  0  0  0  0  0  0  0  0  0  0  0
   -4.8892    8.7741   -8.4833 H   0  0  0  0  0  0  0  0  0  0  0  0
   -2.4600   12.0040   -7.0537 H   0  0  0  0  0  0  0  0  0  0  0  0
   -2.6581    9.7501   -8.0474 H   0  0  0  0  0  0  0  0  0  0  0  0
   -6.3717   12.4489   -7.8389 H   0  0  0  0  0  0  0  0  0  0  0  0
   -6.3685   11.7163   -6.1988 H   0  0  0  0  0  0  0  0  0  0  0  0
   -5.4700   14.1039   -6.1424 H   0  0  0  0  0  0  0  0  0  0  0  0
   -3.9148   13.6392   -5.3732 H   0  0  0  0  0  0  0  0  0  0  0  0
   -3.9239   14.3505   -7.0227 H   0  0  0  0  0  0  0  0  0  0  0  0
  1  2  1  0  0  0  0
  1  3  1  0  0  0  0
  1  4  1  0  0  0  0
  2  5  1  0  0  0  0
  3  6  1  0  0  0  0
  5  6  1  0  0  0  0
  6 12  1  0  0  0  0
  7  8  1  0  0  0  0
  7 10  2  0  0  0  0
  7 12  1  0  0  0  0
  8  9  1  0  0  0  0
  8 11  1  0  0  0  0
  9 15  2  0  0  0  0
 10 14  1  0  0  0  0
 12 13  2  0  0  0  0
 14 15  1  0  0  0  0
 14 18  2  0  0  0  0
 15 16  1  0  0  0  0
 16 17  2  0  0  0  0
 17 18  1  0  0  0  0
 18 19  1  0  0  0  0
 19 20  2  0  0  0  0
 20 21  1  0  0  0  0
 20 25  1  0  0  0  0
 21 24  2  0  0  0  0
 22 23  2  0  0  0  0
 22 24  1  0  0  0  0
 23 25  1  0  0  0  0
 23 26  1  0  0  0  0
  1 27  1  0  0  0  0
  2 28  1  0  0  0  0
  2 29  1  0  0  0  0
  3 30  1  0  0  0  0
  3 31  1  0  0  0  0
  4 32  1  0  0  0  0
  5 33  1  0  0  0  0
  5 34  1  0  0  0  0
  8 35  1  0  0  0  0
  9 36  1  0  0  0  0
 10 37  1  0  0  0  0
 11 38  1  0  0  0  0
 19 39  1  0  0  0  0
 21 40  1  0  0  0  0
 22 41  1  0  0  0  0
 24 42  1  0  0  0  0
 25 43  1  0  0  0  0
 25 44  1  0  0  0  0
 26 45  1  0  0  0  0
 26 46  1  0  0  0  0
 26 47  1  0  0  0  0
M  END
> <Name>
13

> <IC50[uM]>
0.006

$$$$
13
  -OEChem-05192314333D
 Structure written by MMmdl.
 47 50  0     1  0  0  0  0  0999 V2000
   -2.2088   12.9419  -10.9697 C   0  0  1  0  0  0  0  0  0  0  0  0
   -2.1904   14.4671  -10.9424 C   0  0  0  0  0  0  0  0  0  0  0  0
   -3.6992   12.5876  -10.8377 C   0  0  0  0  0  0  0  0  0  0  0  0
   -1.6826   12.4744  -12.1795 O   0  0  0  0  0  0  0  0  0  0  0  0
   -3.5107   14.9139  -11.6089 C   0  0  0  0  0  0  0  0  0  0  0  0
   -4.3443   13.7200  -11.5243 N   0  0  0  0  0  0  0  0  0  0  0  0
   -6.3525   12.3601  -12.0338 C   0  0  0  0  0  0  0  0  0  0  0  0
   -6.9727   11.7556  -13.1375 C   0  0  0  0  0  0  0  0  0  0  0  0
   -7.7097   10.5633  -13.0339 C   0  0  0  0  0  0  0  0  0  0  0  0
   -6.5001   11.8056  -10.7491 C   0  0  0  0  0  0  0  0  0  0  0  0
   -6.8506   12.3073  -14.3824 O   0  0  0  0  0  0  0  0  0  0  0  0
   -5.5377   13.6382  -12.2001 C   0  0  0  0  0  0  0  0  0  0  0  0
   -5.9500   14.5444  -12.9177 O   0  0  0  0  0  0  0  0  0  0  0  0
   -7.2308   10.6159  -10.6131 C   0  0  0  0  0  0  0  0  0  0  0  0
   -7.8083   10.0113  -11.7524 C   0  0  0  0  0  0  0  0  0  0  0  0
   -8.4200    8.8675  -11.2880 N   0  0  0  0  0  0  0  0  0  0  0  0
   -8.2847    8.7400   -9.9757 N   0  0  0  0  0  0  0  0  0  0  0  0
   -7.6047    9.7473   -9.5145 C   0  0  0  0  0  0  0  0  0  0  0  0
   -7.3264    9.8951   -8.0245 C   0  0  0  0  0  0  0  0  0  0  0  0
   -5.9604   10.4805   -7.7353 C   0  0  0  0  0  0  0  0  0  0  0  0
   -4.8075    9.7596   -8.0491 C   0  0  0  0  0  0  0  0  0  0  0  0
   -3.4358   11.5809   -7.2415 C   0  0  0  0  0  0  0  0  0  0  0  0
   -4.5835   12.3061   -6.9225 C   0  0  0  0  0  0  0  0  0  0  0  0
   -3.5481   10.3107   -7.8024 C   0  0  0  0  0  0  0  0  0  0  0  0
   -5.8471   11.7541   -7.1666 C   0  0  0  0  0  0  0  0  0  0  0  0
   -4.4650   13.6954   -6.3241 C   0  0  0  0  0  0  0  0  0  0  0  0
   -1.6558   12.5461  -10.1051 H   0  0  0  0  0  0  0  0  0  0  0  0
   -2.1418   14.8314   -9.9056 H   0  0  0  0  0  0  0  0  0  0  0  0
   -1.3273   14.8503  -11.5065 H   0  0  0  0  0  0  0  0  0  0  0  0
   -3.9292   11.6343  -11.3361 H   0  0  0  0  0  0  0  0  0  0  0  0
   -4.0052   12.5329   -9.7825 H   0  0  0  0  0  0  0  0  0  0  0  0
   -1.6986   11.5246  -12.1863 H   0  0  0  0  0  0  0  0  0  0  0  0
   -3.9654   15.7526  -11.0614 H   0  0  0  0  0  0  0  0  0  0  0  0
   -3.3451   15.2065  -12.6563 H   0  0  0  0  0  0  0  0  0  0  0  0
   -8.1726   10.1006  -13.8930 H   0  0  0  0  0  0  0  0  0  0  0  0
   -6.0607   12.2852   -9.8870 H   0  0  0  0  0  0  0  0  0  0  0  0
   -7.3269   11.7785  -15.0117 H   0  0  0  0  0  0  0  0  0  0  0  0
   -6.7868   14.2962  -13.2927 H   0  0  0  0  0  0  0  0  0  0  0  0
   -8.6485    7.9874   -9.4268 H   0  0  0  0  0  0  0  0  0  0  0  0
   -8.0295    9.6121   -7.2551 H   0  0  0  0  0  0  0  0  0  0  0  0
   -4.8892    8.7741   -8.4833 H   0  0  0  0  0  0  0  0  0  0  0  0
   -2.4600   12.0040   -7.0537 H   0  0  0  0  0  0  0  0  0  0  0  0
   -2.6581    9.7501   -8.0474 H   0  0  0  0  0  0  0  0  0  0  0  0
   -6.7366   12.3128   -6.9153 H   0  0  0  0  0  0  0  0  0  0  0  0
   -4.4364   14.4418   -7.1316 H   0  0  0  0  0  0  0  0  0  0  0  0
   -5.3317   13.8902   -5.6754 H   0  0  0  0  0  0  0  0  0  0  0  0
   -3.5409   13.7615   -5.7311 H   0  0  0  0  0  0  0  0  0  0  0  0
  1  2  1  0  0  0  0
  1  3  1  0  0  0  0
  1  4  1  0  0  0  0
  2  5  1  0  0  0  0
  3  6  1  0  0  0  0
  5  6  1  0  0  0  0
  6 12  1  0  0  0  0
  7  8  1  0  0  0  0
  7 10  1  0  0  0  0
  7 12  2  0  0  0  0
  8  9  2  0  0  0  0
  8 11  1  0  0  0  0
  9 15  1  0  0  0  0
 10 14  2  0  0  0  0
 12 13  1  0  0  0  0
 14 15  1  0  0  0  0
 14 18  1  0  0  0  0
 15 16  2  0  0  0  0
 16 17  1  0  0  0  0
 17 18  1  0  0  0  0
 18 19  2  0  0  0  0
 19 20  1  0  0  0  0
 20 21  2  0  0  0  0
 20 25  1  0  0  0  0
 21 24  1  0  0  0  0
 22 23  1  0  0  0  0
 22 24  2  0  0  0  0
 23 25  2  0  0  0  0
 23 26  1  0  0  0  0
  1 27  1  0  0  0  0
  2 28  1  0  0  0  0
  2 29  1  0  0  0  0
  3 30  1  0  0  0  0
  3 31  1  0  0  0  0
  4 32  1  0  0  0  0
  5 33  1  0  0  0  0
  5 34  1  0  0  0  0
  9 35  1  0  0  0  0
 10 36  1  0  0  0  0
 11 37  1  0  0  0  0
 13 38  1  0  0  0  0
 17 39  1  0  0  0  0
 19 40  1  0  0  0  0
 21 41  1  0  0  0  0
 22 42  1  0  0  0  0
 24 43  1  0  0  0  0
 25 44  1  0  0  0  0
 26 45  1  0  0  0  0
 26 46  1  0  0  0  0
 26 47  1  0  0  0  0
M  END
> <Name>
13

> <IC50[uM]>
0.006

$$$$
13
  -OEChem-05192314333D
 Structure written by MMmdl.
 47 50  0     1  0  0  0  0  0999 V2000
   -2.2088   12.9419  -10.9697 C   0  0  1  0  0  0  0  0  0  0  0  0
   -2.1904   14.4671  -10.9424 C   0  0  0  0  0  0  0  0  0  0  0  0
   -3.6992   12.5876  -10.8377 C   0  0  0  0  0  0  0  0  0  0  0  0
   -1.6826   12.4744  -12.1795 O   0  0  0  0  0  0  0  0  0  0  0  0
   -3.5107   14.9139  -11.6089 C   0  0  0  0  0  0  0  0  0  0  0  0
   -4.3443   13.7200  -11.5243 N   0  0  0  0  0  0  0  0  0  0  0  0
   -6.3525   12.3601  -12.0338 C   0  0  0  0  0  0  0  0  0  0  0  0
   -6.9727   11.7556  -13.1375 C   0  0  0  0  0  0  0  0  0  0  0  0
   -7.7097   10.5633  -13.0339 C   0  0  0  0  0  0  0  0  0  0  0  0
   -6.5001   11.8056  -10.7491 C   0  0  0  0  0  0  0  0  0  0  0  0
   -6.8506   12.3073  -14.3824 O   0  0  0  0  0  0  0  0  0  0  0  0
   -5.5377   13.6382  -12.2001 C   0  0  0  0  0  0  0  0  0  0  0  0
   -5.9500   14.5444  -12.9177 O   0  0  0  0  0  0  0  0  0  0  0  0
   -7.2308   10.6159  -10.6131 C   0  0  0  0  0  0  0  0  0  0  0  0
   -7.8083   10.0113  -11.7524 C   0  0  0  0  0  0  0  0  0  0  0  0
   -8.4200    8.8675  -11.2880 N   0  0  0  0  0  0  0  0  0  0  0  0
   -8.2847    8.7400   -9.9757 N   0  0  0  0  0  0  0  0  0  0  0  0
   -7.6047    9.7473   -9.5145 C   0  0  0  0  0  0  0  0  0  0  0  0
   -7.3264    9.8951   -8.0245 C   0  0  0  0  0  0  0  0  0  0  0  0
   -5.9604   10.4805   -7.7353 C   0  0  0  0  0  0  0  0  0  0  0  0
   -4.8075    9.7596   -8.0491 C   0  0  0  0  0  0  0  0  0  0  0  0
   -3.4358   11.5809   -7.2415 C   0  0  0  0  0  0  0  0  0  0  0  0
   -4.5835   12.3061   -6.9225 C   0  0  0  0  0  0  0  0  0  0  0  0
   -3.5481   10.3107   -7.8024 C   0  0  0  0  0  0  0  0  0  0  0  0
   -5.8471   11.7541   -7.1666 C   0  0  0  0  0  0  0  0  0  0  0  0
   -4.4650   13.6954   -6.3241 C   0  0  0  0  0  0  0  0  0  0  0  0
   -1.6558   12.5461  -10.1051 H   0  0  0  0  0  0  0  0  0  0  0  0
   -2.1418   14.8314   -9.9056 H   0  0  0  0  0  0  0  0  0  0  0  0
   -1.3273   14.8503  -11.5065 H   0  0  0  0  0  0  0  0  0  0  0  0
   -3.9292   11.6343  -11.3361 H   0  0  0  0  0  0  0  0  0  0  0  0
   -4.0052   12.5329   -9.7825 H   0  0  0  0  0  0  0  0  0  0  0  0
   -1.6986   11.5246  -12.1863 H   0  0  0  0  0  0  0  0  0  0  0  0
   -3.9654   15.7526  -11.0614 H   0  0  0  0  0  0  0  0  0  0  0  0
   -3.3451   15.2065  -12.6563 H   0  0  0  0  0  0  0  0  0  0  0  0
   -8.1726   10.1006  -13.8930 H   0  0  0  0  0  0  0  0  0  0  0  0
   -6.0607   12.2852   -9.8870 H   0  0  0  0  0  0  0  0  0  0  0  0
   -6.4002   14.1748  -13.6682 H   0  0  0  0  0  0  0  0  0  0  0  0
   -8.9058    8.2145  -11.8690 H   0  0  0  0  0  0  0  0  0  0  0  0
   -8.6485    7.9874   -9.4268 H   0  0  0  0  0  0  0  0  0  0  0  0
   -8.0295    9.6121   -7.2551 H   0  0  0  0  0  0  0  0  0  0  0  0
   -4.8892    8.7741   -8.4833 H   0  0  0  0  0  0  0  0  0  0  0  0
   -2.4600   12.0040   -7.0537 H   0  0  0  0  0  0  0  0  0  0  0  0
   -2.6581    9.7501   -8.0474 H   0  0  0  0  0  0  0  0  0  0  0  0
   -6.7366   12.3128   -6.9153 H   0  0  0  0  0  0  0  0  0  0  0  0
   -4.4364   14.4418   -7.1316 H   0  0  0  0  0  0  0  0  0  0  0  0
   -5.3317   13.8902   -5.6754 H   0  0  0  0  0  0  0  0  0  0  0  0
   -3.5409   13.7615   -5.7311 H   0  0  0  0  0  0  0  0  0  0  0  0
  1  2  1  0  0  0  0
  1  3  1  0  0  0  0
  1  4  1  0  0  0  0
  2  5  1  0  0  0  0
  3  6  1  0  0  0  0
  5  6  1  0  0  0  0
  6 12  1  0  0  0  0
  7  8  1  0  0  0  0
  7 10  1  0  0  0  0
  7 12  2  0  0  0  0
  8  9  1  0  0  0  0
  8 11  2  0  0  0  0
  9 15  2  0  0  0  0
 10 14  2  0  0  0  0
 12 13  1  0  0  0  0
 14 15  1  0  0  0  0
 14 18  1  0  0  0  0
 15 16  1  0  0  0  0
 16 17  1  0  0  0  0
 17 18  1  0  0  0  0
 18 19  2  0  0  0  0
 19 20  1  0  0  0  0
 20 21  2  0  0  0  0
 20 25  1  0  0  0  0
 21 24  1  0  0  0  0
 22 23  1  0  0  0  0
 22 24  2  0  0  0  0
 23 25  2  0  0  0  0
 23 26  1  0  0  0  0
  1 27  1  0  0  0  0
  2 28  1  0  0  0  0
  2 29  1  0  0  0  0
  3 30  1  0  0  0  0
  3 31  1  0  0  0  0
  4 32  1  0  0  0  0
  5 33  1  0  0  0  0
  5 34  1  0  0  0  0
  9 35  1  0  0  0  0
 10 36  1  0  0  0  0
 13 37  1  0  0  0  0
 16 38  1  0  0  0  0
 17 39  1  0  0  0  0
 19 40  1  0  0  0  0
 21 41  1  0  0  0  0
 22 42  1  0  0  0  0
 24 43  1  0  0  0  0
 25 44  1  0  0  0  0
 26 45  1  0  0  0  0
 26 46  1  0  0  0  0
 26 47  1  0  0  0  0
M  END
> <Name>
13

> <IC50[uM]>
0.006

$$$$
13
  -OEChem-05192314333D
 Structure written by MMmdl.
 47 50  0     1  0  0  0  0  0999 V2000
   -2.2088   12.9419  -10.9697 C   0  0  1  0  0  0  0  0  0  0  0  0
   -2.1904   14.4671  -10.9424 C   0  0  0  0  0  0  0  0  0  0  0  0
   -3.6992   12.5876  -10.8377 C   0  0  0  0  0  0  0  0  0  0  0  0
   -1.6826   12.4744  -12.1795 O   0  0  0  0  0  0  0  0  0  0  0  0
   -3.5107   14.9139  -11.6089 C   0  0  0  0  0  0  0  0  0  0  0  0
   -4.3443   13.7200  -11.5243 N   0  0  0  0  0  0  0  0  0  0  0  0
   -6.3525   12.3601  -12.0338 C   0  0  0  0  0  0  0  0  0  0  0  0
   -6.9727   11.7556  -13.1375 C   0  0  0  0  0  0  0  0  0  0  0  0
   -7.7097   10.5633  -13.0339 C   0  0  0  0  0  0  0  0  0  0  0  0
   -6.5001   11.8056  -10.7491 C   0  0  0  0  0  0  0  0  0  0  0  0
   -6.8506   12.3073  -14.3824 O   0  0  0  0  0  0  0  0  0  0  0  0
   -5.5377   13.6382  -12.2001 C   0  0  0  0  0  0  0  0  0  0  0  0
   -5.9500   14.5444  -12.9177 O   0  0  0  0  0  0  0  0  0  0  0  0
   -7.2308   10.6159  -10.6131 C   0  0  0  0  0  0  0  0  0  0  0  0
   -7.8083   10.0113  -11.7524 C   0  0  0  0  0  0  0  0  0  0  0  0
   -8.4200    8.8675  -11.2880 N   0  0  0  0  0  0  0  0  0  0  0  0
   -8.2847    8.7400   -9.9757 N   0  0  0  0  0  0  0  0  0  0  0  0
   -7.6047    9.7473   -9.5145 C   0  0  0  0  0  0  0  0  0  0  0  0
   -7.3264    9.8951   -8.0245 C   0  0  0  0  0  0  0  0  0  0  0  0
   -5.9604   10.4805   -7.7353 C   0  0  0  0  0  0  0  0  0  0  0  0
   -4.8075    9.7596   -8.0491 C   0  0  0  0  0  0  0  0  0  0  0  0
   -3.4358   11.5809   -7.2415 C   0  0  0  0  0  0  0  0  0  0  0  0
   -4.5835   12.3061   -6.9225 C   0  0  0  0  0  0  0  0  0  0  0  0
   -3.5481   10.3107   -7.8024 C   0  0  0  0  0  0  0  0  0  0  0  0
   -5.8471   11.7541   -7.1666 C   0  0  0  0  0  0  0  0  0  0  0  0
   -4.4650   13.6954   -6.3241 C   0  0  0  0  0  0  0  0  0  0  0  0
   -1.6558   12.5461  -10.1051 H   0  0  0  0  0  0  0  0  0  0  0  0
   -2.1418   14.8314   -9.9056 H   0  0  0  0  0  0  0  0  0  0  0  0
   -1.3273   14.8503  -11.5065 H   0  0  0  0  0  0  0  0  0  0  0  0
   -3.9292   11.6343  -11.3361 H   0  0  0  0  0  0  0  0  0  0  0  0
   -4.0052   12.5329   -9.7825 H   0  0  0  0  0  0  0  0  0  0  0  0
   -1.6986   11.5246  -12.1863 H   0  0  0  0  0  0  0  0  0  0  0  0
   -3.9654   15.7526  -11.0614 H   0  0  0  0  0  0  0  0  0  0  0  0
   -3.3451   15.2065  -12.6563 H   0  0  0  0  0  0  0  0  0  0  0  0
   -8.1726   10.1006  -13.8930 H   0  0  0  0  0  0  0  0  0  0  0  0
   -6.0607   12.2852   -9.8870 H   0  0  0  0  0  0  0  0  0  0  0  0
   -7.3269   11.7785  -15.0117 H   0  0  0  0  0  0  0  0  0  0  0  0
   -6.0573   14.0826  -11.3384 H   0  0  0  0  0  0  0  0  0  0  0  0
   -6.7868   14.2962  -13.2927 H   0  0  0  0  0  0  0  0  0  0  0  0
   -8.0295    9.6121   -7.2551 H   0  0  0  0  0  0  0  0  0  0  0  0
   -4.8892    8.7741   -8.4833 H   0  0  0  0  0  0  0  0  0  0  0  0
   -2.4600   12.0040   -7.0537 H   0  0  0  0  0  0  0  0  0  0  0  0
   -2.6581    9.7501   -8.0474 H   0  0  0  0  0  0  0  0  0  0  0  0
   -6.7366   12.3128   -6.9153 H   0  0  0  0  0  0  0  0  0  0  0  0
   -4.4364   14.4418   -7.1316 H   0  0  0  0  0  0  0  0  0  0  0  0
   -5.3317   13.8902   -5.6754 H   0  0  0  0  0  0  0  0  0  0  0  0
   -3.5409   13.7615   -5.7311 H   0  0  0  0  0  0  0  0  0  0  0  0
  1  2  1  0  0  0  0
  1  3  1  0  0  0  0
  1  4  1  0  0  0  0
  2  5  1  0  0  0  0
  3  6  1  0  0  0  0
  5  6  1  0  0  0  0
  6 12  1  0  0  0  0
  7  8  2  0  0  0  0
  7 10  1  0  0  0  0
  7 12  1  0  0  0  0
  8  9  1  0  0  0  0
  8 11  1  0  0  0  0
  9 15  2  0  0  0  0
 10 14  2  0  0  0  0
 12 13  1  0  0  0  0
 14 15  1  0  0  0  0
 14 18  1  0  0  0  0
 15 16  1  0  0  0  0
 16 17  2  0  0  0  0
 17 18  1  0  0  0  0
 18 19  2  0  0  0  0
 19 20  1  0  0  0  0
 20 21  2  0  0  0  0
 20 25  1  0  0  0  0
 21 24  1  0  0  0  0
 22 23  1  0  0  0  0
 22 24  2  0  0  0  0
 23 25  2  0  0  0  0
 23 26  1  0  0  0  0
  1 27  1  0  0  0  0
  2 28  1  0  0  0  0
  2 29  1  0  0  0  0
  3 30  1  0  0  0  0
  3 31  1  0  0  0  0
  4 32  1  0  0  0  0
  5 33  1  0  0  0  0
  5 34  1  0  0  0  0
  9 35  1  0  0  0  0
 10 36  1  0  0  0  0
 11 37  1  0  0  0  0
 12 38  1  0  0  0  0
 13 39  1  0  0  0  0
 19 40  1  0  0  0  0
 21 41  1  0  0  0  0
 22 42  1  0  0  0  0
 24 43  1  0  0  0  0
 25 44  1  0  0  0  0
 26 45  1  0  0  0  0
 26 46  1  0  0  0  0
 26 47  1  0  0  0  0
M  END
> <Name>
13

> <IC50[uM]>
0.006

$$$$
13
  -OEChem-05192314333D
 Structure written by MMmdl.
 47 50  0     1  0  0  0  0  0999 V2000
   -2.2088   12.9419  -10.9697 C   0  0  1  0  0  0  0  0  0  0  0  0
   -2.1904   14.4671  -10.9424 C   0  0  0  0  0  0  0  0  0  0  0  0
   -3.6992   12.5876  -10.8377 C   0  0  0  0  0  0  0  0  0  0  0  0
   -1.6826   12.4744  -12.1795 O   0  0  0  0  0  0  0  0  0  0  0  0
   -3.5107   14.9139  -11.6089 C   0  0  0  0  0  0  0  0  0  0  0  0
   -4.3443   13.7200  -11.5243 N   0  0  0  0  0  0  0  0  0  0  0  0
   -6.3525   12.3601  -12.0338 C   0  0  0  0  0  0  0  0  0  0  0  0
   -6.9727   11.7556  -13.1375 C   0  0  0  0  0  0  0  0  0  0  0  0
   -7.7097   10.5633  -13.0339 C   0  0  0  0  0  0  0  0  0  0  0  0
   -6.5001   11.8056  -10.7491 C   0  0  0  0  0  0  0  0  0  0  0  0
   -6.8506   12.3073  -14.3824 O   0  0  0  0  0  0  0  0  0  0  0  0
   -5.5377   13.6382  -12.2001 C   0  0  0  0  0  0  0  0  0  0  0  0
   -5.9500   14.5444  -12.9177 O   0  0  0  0  0  0  0  0  0  0  0  0
   -7.2308   10.6159  -10.6131 C   0  0  0  0  0  0  0  0  0  0  0  0
   -7.8083   10.0113  -11.7524 C   0  0  0  0  0  0  0  0  0  0  0  0
   -8.4200    8.8675  -11.2880 N   0  0  0  0  0  0  0  0  0  0  0  0
   -8.2847    8.7400   -9.9757 N   0  0  0  0  0  0  0  0  0  0  0  0
   -7.6047    9.7473   -9.5145 C   0  0  0  0  0  0  0  0  0  0  0  0
   -7.3264    9.8951   -8.0245 C   0  0  0  0  0  0  0  0  0  0  0  0
   -5.9604   10.4805   -7.7353 C   0  0  0  0  0  0  0  0  0  0  0  0
   -4.8075    9.7596   -8.0491 C   0  0  0  0  0  0  0  0  0  0  0  0
   -3.4358   11.5809   -7.2415 C   0  0  0  0  0  0  0  0  0  0  0  0
   -4.5835   12.3061   -6.9225 C   0  0  0  0  0  0  0  0  0  0  0  0
   -3.5481   10.3107   -7.8024 C   0  0  0  0  0  0  0  0  0  0  0  0
   -5.8471   11.7541   -7.1666 C   0  0  0  0  0  0  0  0  0  0  0  0
   -4.4650   13.6954   -6.3241 C   0  0  0  0  0  0  0  0  0  0  0  0
   -1.6558   12.5461  -10.1051 H   0  0  0  0  0  0  0  0  0  0  0  0
   -2.1418   14.8314   -9.9056 H   0  0  0  0  0  0  0  0  0  0  0  0
   -1.3273   14.8503  -11.5065 H   0  0  0  0  0  0  0  0  0  0  0  0
   -3.9292   11.6343  -11.3361 H   0  0  0  0  0  0  0  0  0  0  0  0
   -4.0052   12.5329   -9.7825 H   0  0  0  0  0  0  0  0  0  0  0  0
   -1.6986   11.5246  -12.1863 H   0  0  0  0  0  0  0  0  0  0  0  0
   -3.9654   15.7526  -11.0614 H   0  0  0  0  0  0  0  0  0  0  0  0
   -3.3451   15.2065  -12.6563 H   0  0  0  0  0  0  0  0  0  0  0  0
   -8.1726   10.1006  -13.8930 H   0  0  0  0  0  0  0  0  0  0  0  0
   -6.0607   12.2852   -9.8870 H   0  0  0  0  0  0  0  0  0  0  0  0
   -7.3269   11.7785  -15.0117 H   0  0  0  0  0  0  0  0  0  0  0  0
   -6.7868   14.2962  -13.2927 H   0  0  0  0  0  0  0  0  0  0  0  0
   -8.0906   10.5553   -7.5885 H   0  0  0  0  0  0  0  0  0  0  0  0
   -7.3891    8.9020   -7.5556 H   0  0  0  0  0  0  0  0  0  0  0  0
   -4.8892    8.7741   -8.4833 H   0  0  0  0  0  0  0  0  0  0  0  0
   -2.4600   12.0040   -7.0537 H   0  0  0  0  0  0  0  0  0  0  0  0
   -2.6581    9.7501   -8.0474 H   0  0  0  0  0  0  0  0  0  0  0  0
   -6.7366   12.3128   -6.9153 H   0  0  0  0  0  0  0  0  0  0  0  0
   -4.4364   14.4418   -7.1316 H   0  0  0  0  0  0  0  0  0  0  0  0
   -5.3317   13.8902   -5.6754 H   0  0  0  0  0  0  0  0  0  0  0  0
   -3.5409   13.7615   -5.7311 H   0  0  0  0  0  0  0  0  0  0  0  0
  1  2  1  0  0  0  0
  1  3  1  0  0  0  0
  1  4  1  0  0  0  0
  2  5  1  0  0  0  0
  3  6  1  0  0  0  0
  5  6  1  0  0  0  0
  6 12  1  0  0  0  0
  7  8  1  0  0  0  0
  7 10  1  0  0  0  0
  7 12  2  0  0  0  0
  8  9  2  0  0  0  0
  8 11  1  0  0  0  0
  9 15  1  0  0  0  0
 10 14  2  0  0  0  0
 12 13  1  0  0  0  0
 14 15  1  0  0  0  0
 14 18  1  0  0  0  0
 15 16  2  0  0  0  0
 16 17  1  0  0  0  0
 17 18  2  0  0  0  0
 18 19  1  0  0  0  0
 19 20  1  0  0  0  0
 20 21  2  0  0  0  0
 20 25  1  0  0  0  0
 21 24  1  0  0  0  0
 22 23  1  0  0  0  0
 22 24  2  0  0  0  0
 23 25  2  0  0  0  0
 23 26  1  0  0  0  0
  1 27  1  0  0  0  0
  2 28  1  0  0  0  0
  2 29  1  0  0  0  0
  3 30  1  0  0  0  0
  3 31  1  0  0  0  0
  4 32  1  0  0  0  0
  5 33  1  0  0  0  0
  5 34  1  0  0  0  0
  9 35  1  0  0  0  0
 10 36  1  0  0  0  0
 11 37  1  0  0  0  0
 13 38  1  0  0  0  0
 19 39  1  0  0  0  0
 19 40  1  0  0  0  0
 21 41  1  0  0  0  0
 22 42  1  0  0  0  0
 24 43  1  0  0  0  0
 25 44  1  0  0  0  0
 26 45  1  0  0  0  0
 26 46  1  0  0  0  0
 26 47  1  0  0  0  0
M  END
> <Name>
13

> <IC50[uM]>
0.006

$$$$
13
  -OEChem-05192314333D
 Structure written by MMmdl.
 47 50  0     1  0  0  0  0  0999 V2000
   -2.2088   12.9419  -10.9697 C   0  0  1  0  0  0  0  0  0  0  0  0
   -2.1904   14.4671  -10.9424 C   0  0  0  0  0  0  0  0  0  0  0  0
   -3.6992   12.5876  -10.8377 C   0  0  0  0  0  0  0  0  0  0  0  0
   -1.6826   12.4744  -12.1795 O   0  0  0  0  0  0  0  0  0  0  0  0
   -3.5107   14.9139  -11.6089 C   0  0  0  0  0  0  0  0  0  0  0  0
   -4.3443   13.7200  -11.5243 N   0  0  0  0  0  0  0  0  0  0  0  0
   -6.3525   12.3601  -12.0338 C   0  0  0  0  0  0  0  0  0  0  0  0
   -6.9727   11.7556  -13.1375 C   0  0  0  0  0  0  0  0  0  0  0  0
   -7.7097   10.5633  -13.0339 C   0  0  0  0  0  0  0  0  0  0  0  0
   -6.5001   11.8056  -10.7491 C   0  0  0  0  0  0  0  0  0  0  0  0
   -6.8506   12.3073  -14.3824 O   0  0  0  0  0  0  0  0  0  0  0  0
   -5.5377   13.6382  -12.2001 C   0  0  0  0  0  0  0  0  0  0  0  0
   -5.9500   14.5444  -12.9177 O   0  0  0  0  0  0  0  0  0  0  0  0
   -7.2308   10.6159  -10.6131 C   0  0  0  0  0  0  0  0  0  0  0  0
   -7.8083   10.0113  -11.7524 C   0  0  0  0  0  0  0  0  0  0  0  0
   -8.4200    8.8675  -11.2880 N   0  0  0  0  0  0  0  0  0  0  0  0
   -8.2847    8.7400   -9.9757 N   0  0  0  0  0  0  0  0  0  0  0  0
   -7.6047    9.7473   -9.5145 C   0  0  0  0  0  0  0  0  0  0  0  0
   -7.3264    9.8951   -8.0245 C   0  0  0  0  0  0  0  0  0  0  0  0
   -5.9604   10.4805   -7.7353 C   0  0  0  0  0  0  0  0  0  0  0  0
   -4.8075    9.7596   -8.0491 C   0  0  0  0  0  0  0  0  0  0  0  0
   -3.4358   11.5809   -7.2415 C   0  0  0  0  0  0  0  0  0  0  0  0
   -4.5835   12.3061   -6.9225 C   0  0  0  0  0  0  0  0  0  0  0  0
   -3.5481   10.3107   -7.8024 C   0  0  0  0  0  0  0  0  0  0  0  0
   -5.8471   11.7541   -7.1666 C   0  0  0  0  0  0  0  0  0  0  0  0
   -4.4650   13.6954   -6.3241 C   0  0  0  0  0  0  0  0  0  0  0  0
   -1.6558   12.5461  -10.1051 H   0  0  0  0  0  0  0  0  0  0  0  0
   -2.1418   14.8314   -9.9056 H   0  0  0  0  0  0  0  0  0  0  0  0
   -1.3273   14.8503  -11.5065 H   0  0  0  0  0  0  0  0  0  0  0  0
   -3.9292   11.6343  -11.3361 H   0  0  0  0  0  0  0  0  0  0  0  0
   -4.0052   12.5329   -9.7825 H   0  0  0  0  0  0  0  0  0  0  0  0
   -1.6986   11.5246  -12.1863 H   0  0  0  0  0  0  0  0  0  0  0  0
   -3.9654   15.7526  -11.0614 H   0  0  0  0  0  0  0  0  0  0  0  0
   -3.3451   15.2065  -12.6563 H   0  0  0  0  0  0  0  0  0  0  0  0
   -8.7298   10.7663  -13.3920 H   0  0  0  0  0  0  0  0  0  0  0  0
   -7.2340    9.8162  -13.6862 H   0  0  0  0  0  0  0  0  0  0  0  0
   -6.0607   12.2852   -9.8870 H   0  0  0  0  0  0  0  0  0  0  0  0
   -6.4002   14.1748  -13.6682 H   0  0  0  0  0  0  0  0  0  0  0  0
   -8.6485    7.9874   -9.4268 H   0  0  0  0  0  0  0  0  0  0  0  0
   -8.0295    9.6121   -7.2551 H   0  0  0  0  0  0  0  0  0  0  0  0
   -4.8892    8.7741   -8.4833 H   0  0  0  0  0  0  0  0  0  0  0  0
   -2.4600   12.0040   -7.0537 H   0  0  0  0  0  0  0  0  0  0  0  0
   -2.6581    9.7501   -8.0474 H   0  0  0  0  0  0  0  0  0  0  0  0
   -6.7366   12.3128   -6.9153 H   0  0  0  0  0  0  0  0  0  0  0  0
   -4.4364   14.4418   -7.1316 H   0  0  0  0  0  0  0  0  0  0  0  0
   -5.3317   13.8902   -5.6754 H   0  0  0  0  0  0  0  0  0  0  0  0
   -3.5409   13.7615   -5.7311 H   0  0  0  0  0  0  0  0  0  0  0  0
  1  2  1  0  0  0  0
  1  3  1  0  0  0  0
  1  4  1  0  0  0  0
  2  5  1  0  0  0  0
  3  6  1  0  0  0  0
  5  6  1  0  0  0  0
  6 12  1  0  0  0  0
  7  8  1  0  0  0  0
  7 10  1  0  0  0  0
  7 12  2  0  0  0  0
  8  9  1  0  0  0  0
  8 11  2  0  0  0  0
  9 15  1  0  0  0  0
 10 14  2  0  0  0  0
 12 13  1  0  0  0  0
 14 15  1  0  0  0  0
 14 18  1  0  0  0  0
 15 16  2  0  0  0  0
 16 17  1  0  0  0  0
 17 18  1  0  0  0  0
 18 19  2  0  0  0  0
 19 20  1  0  0  0  0
 20 21  2  0  0  0  0
 20 25  1  0  0  0  0
 21 24  1  0  0  0  0
 22 23  1  0  0  0  0
 22 24  2  0  0  0  0
 23 25  2  0  0  0  0
 23 26  1  0  0  0  0
  1 27  1  0  0  0  0
  2 28  1  0  0  0  0
  2 29  1  0  0  0  0
  3 30  1  0  0  0  0
  3 31  1  0  0  0  0
  4 32  1  0  0  0  0
  5 33  1  0  0  0  0
  5 34  1  0  0  0  0
  9 35  1  0  0  0  0
  9 36  1  0  0  0  0
 10 37  1  0  0  0  0
 13 38  1  0  0  0  0
 17 39  1  0  0  0  0
 19 40  1  0  0  0  0
 21 41  1  0  0  0  0
 22 42  1  0  0  0  0
 24 43  1  0  0  0  0
 25 44  1  0  0  0  0
 26 45  1  0  0  0  0
 26 46  1  0  0  0  0
 26 47  1  0  0  0  0
M  END
> <Name>
13

> <IC50[uM]>
0.006

$$$$
13
  -OEChem-05192314333D
 Structure written by MMmdl.
 47 50  0     1  0  0  0  0  0999 V2000
   -2.2088   12.9419  -10.9697 C   0  0  1  0  0  0  0  0  0  0  0  0
   -2.1904   14.4671  -10.9424 C   0  0  0  0  0  0  0  0  0  0  0  0
   -3.6992   12.5876  -10.8377 C   0  0  0  0  0  0  0  0  0  0  0  0
   -1.6826   12.4744  -12.1795 O   0  0  0  0  0  0  0  0  0  0  0  0
   -3.5107   14.9139  -11.6089 C   0  0  0  0  0  0  0  0  0  0  0  0
   -4.3443   13.7200  -11.5243 N   0  0  0  0  0  0  0  0  0  0  0  0
   -6.3525   12.3601  -12.0338 C   0  0  0  0  0  0  0  0  0  0  0  0
   -6.9727   11.7556  -13.1375 C   0  0  0  0  0  0  0  0  0  0  0  0
   -7.7097   10.5633  -13.0339 C   0  0  0  0  0  0  0  0  0  0  0  0
   -6.5001   11.8056  -10.7491 C   0  0  0  0  0  0  0  0  0  0  0  0
   -6.8506   12.3073  -14.3824 O   0  0  0  0  0  0  0  0  0  0  0  0
   -5.5377   13.6382  -12.2001 C   0  0  0  0  0  0  0  0  0  0  0  0
   -5.9500   14.5444  -12.9177 O   0  0  0  0  0  0  0  0  0  0  0  0
   -7.2308   10.6159  -10.6131 C   0  0  0  0  0  0  0  0  0  0  0  0
   -7.8083   10.0113  -11.7524 C   0  0  0  0  0  0  0  0  0  0  0  0
   -8.4200    8.8675  -11.2880 N   0  0  0  0  0  0  0  0  0  0  0  0
   -8.2847    8.7400   -9.9757 N   0  0  0  0  0  0  0  0  0  0  0  0
   -7.6047    9.7473   -9.5145 C   0  0  0  0  0  0  0  0  0  0  0  0
   -7.3264    9.8951   -8.0245 C   0  0  0  0  0  0  0  0  0  0  0  0
   -5.9604   10.4805   -7.7353 C   0  0  0  0  0  0  0  0  0  0  0  0
   -4.8075    9.7596   -8.0491 C   0  0  0  0  0  0  0  0  0  0  0  0
   -3.4358   11.5809   -7.2415 C   0  0  0  0  0  0  0  0  0  0  0  0
   -4.5835   12.3061   -6.9225 C   0  0  0  0  0  0  0  0  0  0  0  0
   -3.5481   10.3107   -7.8024 C   0  0  0  0  0  0  0  0  0  0  0  0
   -5.8471   11.7541   -7.1666 C   0  0  0  0  0  0  0  0  0  0  0  0
   -4.4650   13.6954   -6.3241 C   0  0  0  0  0  0  0  0  0  0  0  0
   -1.6558   12.5461  -10.1051 H   0  0  0  0  0  0  0  0  0  0  0  0
   -2.1418   14.8314   -9.9056 H   0  0  0  0  0  0  0  0  0  0  0  0
   -1.3273   14.8503  -11.5065 H   0  0  0  0  0  0  0  0  0  0  0  0
   -3.9292   11.6343  -11.3361 H   0  0  0  0  0  0  0  0  0  0  0  0
   -4.0052   12.5329   -9.7825 H   0  0  0  0  0  0  0  0  0  0  0  0
   -1.6986   11.5246  -12.1863 H   0  0  0  0  0  0  0  0  0  0  0  0
   -3.9654   15.7526  -11.0614 H   0  0  0  0  0  0  0  0  0  0  0  0
   -3.3451   15.2065  -12.6563 H   0  0  0  0  0  0  0  0  0  0  0  0
   -8.1726   10.1006  -13.8930 H   0  0  0  0  0  0  0  0  0  0  0  0
   -6.0607   12.2852   -9.8870 H   0  0  0  0  0  0  0  0  0  0  0  0
   -6.4002   14.1748  -13.6682 H   0  0  0  0  0  0  0  0  0  0  0  0
   -8.9058    8.2145  -11.8690 H   0  0  0  0  0  0  0  0  0  0  0  0
   -8.0906   10.5553   -7.5885 H   0  0  0  0  0  0  0  0  0  0  0  0
   -7.3891    8.9020   -7.5556 H   0  0  0  0  0  0  0  0  0  0  0  0
   -4.8892    8.7741   -8.4833 H   0  0  0  0  0  0  0  0  0  0  0  0
   -2.4600   12.0040   -7.0537 H   0  0  0  0  0  0  0  0  0  0  0  0
   -2.6581    9.7501   -8.0474 H   0  0  0  0  0  0  0  0  0  0  0  0
   -6.7366   12.3128   -6.9153 H   0  0  0  0  0  0  0  0  0  0  0  0
   -4.4364   14.4418   -7.1316 H   0  0  0  0  0  0  0  0  0  0  0  0
   -5.3317   13.8902   -5.6754 H   0  0  0  0  0  0  0  0  0  0  0  0
   -3.5409   13.7615   -5.7311 H   0  0  0  0  0  0  0  0  0  0  0  0
  1  2  1  0  0  0  0
  1  3  1  0  0  0  0
  1  4  1  0  0  0  0
  2  5  1  0  0  0  0
  3  6  1  0  0  0  0
  5  6  1  0  0  0  0
  6 12  1  0  0  0  0
  7  8  1  0  0  0  0
  7 10  1  0  0  0  0
  7 12  2  0  0  0  0
  8  9  1  0  0  0  0
  8 11  2  0  0  0  0
  9 15  2  0  0  0  0
 10 14  2  0  0  0  0
 12 13  1  0  0  0  0
 14 15  1  0  0  0  0
 14 18  1  0  0  0  0
 15 16  1  0  0  0  0
 16 17  1  0  0  0  0
 17 18  2  0  0  0  0
 18 19  1  0  0  0  0
 19 20  1  0  0  0  0
 20 21  2  0  0  0  0
 20 25  1  0  0  0  0
 21 24  1  0  0  0  0
 22 23  1  0  0  0  0
 22 24  2  0  0  0  0
 23 25  2  0  0  0  0
 23 26  1  0  0  0  0
  1 27  1  0  0  0  0
  2 28  1  0  0  0  0
  2 29  1  0  0  0  0
  3 30  1  0  0  0  0
  3 31  1  0  0  0  0
  4 32  1  0  0  0  0
  5 33  1  0  0  0  0
  5 34  1  0  0  0  0
  9 35  1  0  0  0  0
 10 36  1  0  0  0  0
 13 37  1  0  0  0  0
 16 38  1  0  0  0  0
 19 39  1  0  0  0  0
 19 40  1  0  0  0  0
 21 41  1  0  0  0  0
 22 42  1  0  0  0  0
 24 43  1  0  0  0  0
 25 44  1  0  0  0  0
 26 45  1  0  0  0  0
 26 46  1  0  0  0  0
 26 47  1  0  0  0  0
M  END
> <Name>
13

> <IC50[uM]>
0.006

$$$$
13
  -OEChem-05192314333D
 Structure written by MMmdl.
 47 50  0     1  0  0  0  0  0999 V2000
   -2.2088   12.9419  -10.9697 C   0  0  1  0  0  0  0  0  0  0  0  0
   -2.1904   14.4671  -10.9424 C   0  0  0  0  0  0  0  0  0  0  0  0
   -3.6992   12.5876  -10.8377 C   0  0  0  0  0  0  0  0  0  0  0  0
   -1.6826   12.4744  -12.1795 O   0  0  0  0  0  0  0  0  0  0  0  0
   -3.5107   14.9139  -11.6089 C   0  0  0  0  0  0  0  0  0  0  0  0
   -4.3443   13.7200  -11.5243 N   0  0  0  0  0  0  0  0  0  0  0  0
   -6.3525   12.3601  -12.0338 C   0  0  0  0  0  0  0  0  0  0  0  0
   -6.9727   11.7556  -13.1375 C   0  0  0  0  0  0  0  0  0  0  0  0
   -7.7097   10.5633  -13.0339 C   0  0  0  0  0  0  0  0  0  0  0  0
   -6.5001   11.8056  -10.7491 C   0  0  0  0  0  0  0  0  0  0  0  0
   -6.8506   12.3073  -14.3824 O   0  0  0  0  0  0  0  0  0  0  0  0
   -5.5377   13.6382  -12.2001 C   0  0  0  0  0  0  0  0  0  0  0  0
   -5.9500   14.5444  -12.9177 O   0  0  0  0  0  0  0  0  0  0  0  0
   -7.2308   10.6159  -10.6131 C   0  0  0  0  0  0  0  0  0  0  0  0
   -7.8083   10.0113  -11.7524 C   0  0  0  0  0  0  0  0  0  0  0  0
   -8.4200    8.8675  -11.2880 N   0  0  0  0  0  0  0  0  0  0  0  0
   -8.2847    8.7400   -9.9757 N   0  0  0  0  0  0  0  0  0  0  0  0
   -7.6047    9.7473   -9.5145 C   0  0  0  0  0  0  0  0  0  0  0  0
   -7.3264    9.8951   -8.0245 C   0  0  0  0  0  0  0  0  0  0  0  0
   -5.9604   10.4805   -7.7353 C   0  0  0  0  0  0  0  0  0  0  0  0
   -4.8075    9.7596   -8.0491 C   0  0  0  0  0  0  0  0  0  0  0  0
   -3.4358   11.5809   -7.2415 C   0  0  0  0  0  0  0  0  0  0  0  0
   -4.5835   12.3061   -6.9225 C   0  0  0  0  0  0  0  0  0  0  0  0
   -3.5481   10.3107   -7.8024 C   0  0  0  0  0  0  0  0  0  0  0  0
   -5.8471   11.7541   -7.1666 C   0  0  0  0  0  0  0  0  0  0  0  0
   -4.4650   13.6954   -6.3241 C   0  0  0  0  0  0  0  0  0  0  0  0
   -1.6558   12.5461  -10.1051 H   0  0  0  0  0  0  0  0  0  0  0  0
   -2.1418   14.8314   -9.9056 H   0  0  0  0  0  0  0  0  0  0  0  0
   -1.3273   14.8503  -11.5065 H   0  0  0  0  0  0  0  0  0  0  0  0
   -3.9292   11.6343  -11.3361 H   0  0  0  0  0  0  0  0  0  0  0  0
   -4.0052   12.5329   -9.7825 H   0  0  0  0  0  0  0  0  0  0  0  0
   -1.6986   11.5246  -12.1863 H   0  0  0  0  0  0  0  0  0  0  0  0
   -3.9654   15.7526  -11.0614 H   0  0  0  0  0  0  0  0  0  0  0  0
   -3.3451   15.2065  -12.6563 H   0  0  0  0  0  0  0  0  0  0  0  0
   -8.7298   10.7663  -13.3920 H   0  0  0  0  0  0  0  0  0  0  0  0
   -7.2340    9.8162  -13.6862 H   0  0  0  0  0  0  0  0  0  0  0  0
   -6.0607   12.2852   -9.8870 H   0  0  0  0  0  0  0  0  0  0  0  0
   -6.4002   14.1748  -13.6682 H   0  0  0  0  0  0  0  0  0  0  0  0
   -8.0906   10.5553   -7.5885 H   0  0  0  0  0  0  0  0  0  0  0  0
   -7.3891    8.9020   -7.5556 H   0  0  0  0  0  0  0  0  0  0  0  0
   -4.8892    8.7741   -8.4833 H   0  0  0  0  0  0  0  0  0  0  0  0
   -2.4600   12.0040   -7.0537 H   0  0  0  0  0  0  0  0  0  0  0  0
   -2.6581    9.7501   -8.0474 H   0  0  0  0  0  0  0  0  0  0  0  0
   -6.7366   12.3128   -6.9153 H   0  0  0  0  0  0  0  0  0  0  0  0
   -4.4364   14.4418   -7.1316 H   0  0  0  0  0  0  0  0  0  0  0  0
   -5.3317   13.8902   -5.6754 H   0  0  0  0  0  0  0  0  0  0  0  0
   -3.5409   13.7615   -5.7311 H   0  0  0  0  0  0  0  0  0  0  0  0
  1  2  1  0  0  0  0
  1  3  1  0  0  0  0
  1  4  1  0  0  0  0
  2  5  1  0  0  0  0
  3  6  1  0  0  0  0
  5  6  1  0  0  0  0
  6 12  1  0  0  0  0
  7  8  1  0  0  0  0
  7 10  1  0  0  0  0
  7 12  2  0  0  0  0
  8  9  1  0  0  0  0
  8 11  2  0  0  0  0
  9 15  1  0  0  0  0
 10 14  2  0  0  0  0
 12 13  1  0  0  0  0
 14 15  1  0  0  0  0
 14 18  1  0  0  0  0
 15 16  2  0  0  0  0
 16 17  1  0  0  0  0
 17 18  2  0  0  0  0
 18 19  1  0  0  0  0
 19 20  1  0  0  0  0
 20 21  2  0  0  0  0
 20 25  1  0  0  0  0
 21 24  1  0  0  0  0
 22 23  1  0  0  0  0
 22 24  2  0  0  0  0
 23 25  2  0  0  0  0
 23 26  1  0  0  0  0
  1 27  1  0  0  0  0
  2 28  1  0  0  0  0
  2 29  1  0  0  0  0
  3 30  1  0  0  0  0
  3 31  1  0  0  0  0
  4 32  1  0  0  0  0
  5 33  1  0  0  0  0
  5 34  1  0  0  0  0
  9 35  1  0  0  0  0
  9 36  1  0  0  0  0
 10 37  1  0  0  0  0
 13 38  1  0  0  0  0
 19 39  1  0  0  0  0
 19 40  1  0  0  0  0
 21 41  1  0  0  0  0
 22 42  1  0  0  0  0
 24 43  1  0  0  0  0
 25 44  1  0  0  0  0
 26 45  1  0  0  0  0
 26 46  1  0  0  0  0
 26 47  1  0  0  0  0
M  END
> <Name>
13

> <IC50[uM]>
0.006

$$$$
13
  -OEChem-05192314333D
 Structure written by MMmdl.
 47 50  0     1  0  0  0  0  0999 V2000
   -2.2088   12.9419  -10.9697 C   0  0  1  0  0  0  0  0  0  0  0  0
   -2.1904   14.4671  -10.9424 C   0  0  0  0  0  0  0  0  0  0  0  0
   -3.6992   12.5876  -10.8377 C   0  0  0  0  0  0  0  0  0  0  0  0
   -1.6826   12.4744  -12.1795 O   0  0  0  0  0  0  0  0  0  0  0  0
   -3.5107   14.9139  -11.6089 C   0  0  0  0  0  0  0  0  0  0  0  0
   -4.3443   13.7200  -11.5243 N   0  0  0  0  0  0  0  0  0  0  0  0
   -6.3525   12.3601  -12.0338 C   0  0  0  0  0  0  0  0  0  0  0  0
   -6.9727   11.7556  -13.1375 C   0  0  0  0  0  0  0  0  0  0  0  0
   -7.7097   10.5633  -13.0339 C   0  0  0  0  0  0  0  0  0  0  0  0
   -6.5001   11.8056  -10.7491 C   0  0  0  0  0  0  0  0  0  0  0  0
   -6.8506   12.3073  -14.3824 O   0  0  0  0  0  0  0  0  0  0  0  0
   -5.5377   13.6382  -12.2001 C   0  0  0  0  0  0  0  0  0  0  0  0
   -5.9500   14.5444  -12.9177 O   0  0  0  0  0  0  0  0  0  0  0  0
   -7.2308   10.6159  -10.6131 C   0  0  0  0  0  0  0  0  0  0  0  0
   -7.8083   10.0113  -11.7524 C   0  0  0  0  0  0  0  0  0  0  0  0
   -8.4200    8.8675  -11.2880 N   0  0  0  0  0  0  0  0  0  0  0  0
   -8.2847    8.7400   -9.9757 N   0  0  0  0  0  0  0  0  0  0  0  0
   -7.6047    9.7473   -9.5145 C   0  0  0  0  0  0  0  0  0  0  0  0
   -7.3264    9.8951   -8.0245 C   0  0  0  0  0  0  0  0  0  0  0  0
   -5.9604   10.4805   -7.7353 C   0  0  0  0  0  0  0  0  0  0  0  0
   -4.8075    9.7596   -8.0491 C   0  0  0  0  0  0  0  0  0  0  0  0
   -3.4358   11.5809   -7.2415 C   0  0  0  0  0  0  0  0  0  0  0  0
   -4.5835   12.3061   -6.9225 C   0  0  0  0  0  0  0  0  0  0  0  0
   -3.5481   10.3107   -7.8024 C   0  0  0  0  0  0  0  0  0  0  0  0
   -5.8471   11.7541   -7.1666 C   0  0  0  0  0  0  0  0  0  0  0  0
   -4.4650   13.6954   -6.3241 C   0  0  0  0  0  0  0  0  0  0  0  0
   -1.6558   12.5461  -10.1051 H   0  0  0  0  0  0  0  0  0  0  0  0
   -2.1418   14.8314   -9.9056 H   0  0  0  0  0  0  0  0  0  0  0  0
   -1.3273   14.8503  -11.5065 H   0  0  0  0  0  0  0  0  0  0  0  0
   -3.9292   11.6343  -11.3361 H   0  0  0  0  0  0  0  0  0  0  0  0
   -4.0052   12.5329   -9.7825 H   0  0  0  0  0  0  0  0  0  0  0  0
   -1.6986   11.5246  -12.1863 H   0  0  0  0  0  0  0  0  0  0  0  0
   -3.9654   15.7526  -11.0614 H   0  0  0  0  0  0  0  0  0  0  0  0
   -3.3451   15.2065  -12.6563 H   0  0  0  0  0  0  0  0  0  0  0  0
   -8.7298   10.7663  -13.3920 H   0  0  0  0  0  0  0  0  0  0  0  0
   -7.2340    9.8162  -13.6862 H   0  0  0  0  0  0  0  0  0  0  0  0
   -6.0607   12.2852   -9.8870 H   0  0  0  0  0  0  0  0  0  0  0  0
   -6.4002   14.1748  -13.6682 H   0  0  0  0  0  0  0  0  0  0  0  0
   -6.8802    9.4462  -11.9237 H   0  0  0  0  0  0  0  0  0  0  0  0
   -8.0295    9.6121   -7.2551 H   0  0  0  0  0  0  0  0  0  0  0  0
   -4.8892    8.7741   -8.4833 H   0  0  0  0  0  0  0  0  0  0  0  0
   -2.4600   12.0040   -7.0537 H   0  0  0  0  0  0  0  0  0  0  0  0
   -2.6581    9.7501   -8.0474 H   0  0  0  0  0  0  0  0  0  0  0  0
   -6.7366   12.3128   -6.9153 H   0  0  0  0  0  0  0  0  0  0  0  0
   -4.4364   14.4418   -7.1316 H   0  0  0  0  0  0  0  0  0  0  0  0
   -5.3317   13.8902   -5.6754 H   0  0  0  0  0  0  0  0  0  0  0  0
   -3.5409   13.7615   -5.7311 H   0  0  0  0  0  0  0  0  0  0  0  0
  1  2  1  0  0  0  0
  1  3  1  0  0  0  0
  1  4  1  0  0  0  0
  2  5  1  0  0  0  0
  3  6  1  0  0  0  0
  5  6  1  0  0  0  0
  6 12  1  0  0  0  0
  7  8  1  0  0  0  0
  7 10  1  0  0  0  0
  7 12  2  0  0  0  0
  8  9  1  0  0  0  0
  8 11  2  0  0  0  0
  9 15  1  0  0  0  0
 10 14  2  0  0  0  0
 12 13  1  0  0  0  0
 14 15  1  0  0  0  0
 14 18  1  0  0  0  0
 15 16  1  0  0  0  0
 16 17  2  0  0  0  0
 17 18  1  0  0  0  0
 18 19  2  0  0  0  0
 19 20  1  0  0  0  0
 20 21  2  0  0  0  0
 20 25  1  0  0  0  0
 21 24  1  0  0  0  0
 22 23  1  0  0  0  0
 22 24  2  0  0  0  0
 23 25  2  0  0  0  0
 23 26  1  0  0  0  0
  1 27  1  0  0  0  0
  2 28  1  0  0  0  0
  2 29  1  0  0  0  0
  3 30  1  0  0  0  0
  3 31  1  0  0  0  0
  4 32  1  0  0  0  0
  5 33  1  0  0  0  0
  5 34  1  0  0  0  0
  9 35  1  0  0  0  0
  9 36  1  0  0  0  0
 10 37  1  0  0  0  0
 13 38  1  0  0  0  0
 15 39  1  0  0  0  0
 19 40  1  0  0  0  0
 21 41  1  0  0  0  0
 22 42  1  0  0  0  0
 24 43  1  0  0  0  0
 25 44  1  0  0  0  0
 26 45  1  0  0  0  0
 26 46  1  0  0  0  0
 26 47  1  0  0  0  0
M  END
> <Name>
13

> <IC50[uM]>
0.006

$$$$
13
  -OEChem-05192314333D
 Structure written by MMmdl.
 47 50  0     1  0  0  0  0  0999 V2000
   -2.2088   12.9419  -10.9697 C   0  0  1  0  0  0  0  0  0  0  0  0
   -2.1904   14.4671  -10.9424 C   0  0  0  0  0  0  0  0  0  0  0  0
   -3.6992   12.5876  -10.8377 C   0  0  0  0  0  0  0  0  0  0  0  0
   -1.6826   12.4744  -12.1795 O   0  0  0  0  0  0  0  0  0  0  0  0
   -3.5107   14.9139  -11.6089 C   0  0  0  0  0  0  0  0  0  0  0  0
   -4.3443   13.7200  -11.5243 N   0  0  0  0  0  0  0  0  0  0  0  0
   -6.3525   12.3601  -12.0338 C   0  0  0  0  0  0  0  0  0  0  0  0
   -6.9727   11.7556  -13.1375 C   0  0  0  0  0  0  0  0  0  0  0  0
   -7.7097   10.5633  -13.0339 C   0  0  0  0  0  0  0  0  0  0  0  0
   -6.5001   11.8056  -10.7491 C   0  0  0  0  0  0  0  0  0  0  0  0
   -6.8506   12.3073  -14.3824 O   0  0  0  0  0  0  0  0  0  0  0  0
   -5.5377   13.6382  -12.2001 C   0  0  0  0  0  0  0  0  0  0  0  0
   -5.9500   14.5444  -12.9177 O   0  0  0  0  0  0  0  0  0  0  0  0
   -7.2308   10.6159  -10.6131 C   0  0  0  0  0  0  0  0  0  0  0  0
   -7.8083   10.0113  -11.7524 C   0  0  0  0  0  0  0  0  0  0  0  0
   -8.4200    8.8675  -11.2880 N   0  0  0  0  0  0  0  0  0  0  0  0
   -8.2847    8.7400   -9.9757 N   0  0  0  0  0  0  0  0  0  0  0  0
   -7.6047    9.7473   -9.5145 C   0  0  0  0  0  0  0  0  0  0  0  0
   -7.3264    9.8951   -8.0245 C   0  0  0  0  0  0  0  0  0  0  0  0
   -5.9604   10.4805   -7.7353 C   0  0  0  0  0  0  0  0  0  0  0  0
   -4.8075    9.7596   -8.0491 C   0  0  0  0  0  0  0  0  0  0  0  0
   -3.4358   11.5809   -7.2415 C   0  0  0  0  0  0  0  0  0  0  0  0
   -4.5835   12.3061   -6.9225 C   0  0  0  0  0  0  0  0  0  0  0  0
   -3.5481   10.3107   -7.8024 C   0  0  0  0  0  0  0  0  0  0  0  0
   -5.8471   11.7541   -7.1666 C   0  0  0  0  0  0  0  0  0  0  0  0
   -4.4650   13.6954   -6.3241 C   0  0  0  0  0  0  0  0  0  0  0  0
   -1.6558   12.5461  -10.1051 H   0  0  0  0  0  0  0  0  0  0  0  0
   -2.1418   14.8314   -9.9056 H   0  0  0  0  0  0  0  0  0  0  0  0
   -1.3273   14.8503  -11.5065 H   0  0  0  0  0  0  0  0  0  0  0  0
   -3.9292   11.6343  -11.3361 H   0  0  0  0  0  0  0  0  0  0  0  0
   -4.0052   12.5329   -9.7825 H   0  0  0  0  0  0  0  0  0  0  0  0
   -1.6986   11.5246  -12.1863 H   0  0  0  0  0  0  0  0  0  0  0  0
   -3.9654   15.7526  -11.0614 H   0  0  0  0  0  0  0  0  0  0  0  0
   -3.3451   15.2065  -12.6563 H   0  0  0  0  0  0  0  0  0  0  0  0
   -8.1726   10.1006  -13.8930 H   0  0  0  0  0  0  0  0  0  0  0  0
   -5.4892   11.6119  -10.3610 H   0  0  0  0  0  0  0  0  0  0  0  0
   -6.9942   12.5634  -10.1232 H   0  0  0  0  0  0  0  0  0  0  0  0
   -6.4002   14.1748  -13.6682 H   0  0  0  0  0  0  0  0  0  0  0  0
   -6.3117   10.0311  -10.7657 H   0  0  0  0  0  0  0  0  0  0  0  0
   -8.0295    9.6121   -7.2551 H   0  0  0  0  0  0  0  0  0  0  0  0
   -4.8892    8.7741   -8.4833 H   0  0  0  0  0  0  0  0  0  0  0  0
   -2.4600   12.0040   -7.0537 H   0  0  0  0  0  0  0  0  0  0  0  0
   -2.6581    9.7501   -8.0474 H   0  0  0  0  0  0  0  0  0  0  0  0
   -6.7366   12.3128   -6.9153 H   0  0  0  0  0  0  0  0  0  0  0  0
   -4.4364   14.4418   -7.1316 H   0  0  0  0  0  0  0  0  0  0  0  0
   -5.3317   13.8902   -5.6754 H   0  0  0  0  0  0  0  0  0  0  0  0
   -3.5409   13.7615   -5.7311 H   0  0  0  0  0  0  0  0  0  0  0  0
  1  2  1  0  0  0  0
  1  3  1  0  0  0  0
  1  4  1  0  0  0  0
  2  5  1  0  0  0  0
  3  6  1  0  0  0  0
  5  6  1  0  0  0  0
  6 12  1  0  0  0  0
  7  8  1  0  0  0  0
  7 10  1  0  0  0  0
  7 12  2  0  0  0  0
  8  9  1  0  0  0  0
  8 11  2  0  0  0  0
  9 15  2  0  0  0  0
 10 14  1  0  0  0  0
 12 13  1  0  0  0  0
 14 15  1  0  0  0  0
 14 18  1  0  0  0  0
 15 16  1  0  0  0  0
 16 17  2  0  0  0  0
 17 18  1  0  0  0  0
 18 19  2  0  0  0  0
 19 20  1  0  0  0  0
 20 21  2  0  0  0  0
 20 25  1  0  0  0  0
 21 24  1  0  0  0  0
 22 23  1  0  0  0  0
 22 24  2  0  0  0  0
 23 25  2  0  0  0  0
 23 26  1  0  0  0  0
  1 27  1  0  0  0  0
  2 28  1  0  0  0  0
  2 29  1  0  0  0  0
  3 30  1  0  0  0  0
  3 31  1  0  0  0  0
  4 32  1  0  0  0  0
  5 33  1  0  0  0  0
  5 34  1  0  0  0  0
  9 35  1  0  0  0  0
 10 36  1  0  0  0  0
 10 37  1  0  0  0  0
 13 38  1  0  0  0  0
 14 39  1  0  0  0  0
 19 40  1  0  0  0  0
 21 41  1  0  0  0  0
 22 42  1  0  0  0  0
 24 43  1  0  0  0  0
 25 44  1  0  0  0  0
 26 45  1  0  0  0  0
 26 46  1  0  0  0  0
 26 47  1  0  0  0  0
M  END
> <Name>
13

> <IC50[uM]>
0.006

$$$$
13
  -OEChem-05192314333D
 Structure written by MMmdl.
 47 50  0     1  0  0  0  0  0999 V2000
   -2.2088   12.9419  -10.9697 C   0  0  1  0  0  0  0  0  0  0  0  0
   -2.1904   14.4671  -10.9424 C   0  0  0  0  0  0  0  0  0  0  0  0
   -3.6992   12.5876  -10.8377 C   0  0  0  0  0  0  0  0  0  0  0  0
   -1.6826   12.4744  -12.1795 O   0  0  0  0  0  0  0  0  0  0  0  0
   -3.5107   14.9139  -11.6089 C   0  0  0  0  0  0  0  0  0  0  0  0
   -4.3443   13.7200  -11.5243 N   0  0  0  0  0  0  0  0  0  0  0  0
   -6.3525   12.3601  -12.0338 C   0  0  0  0  0  0  0  0  0  0  0  0
   -6.9727   11.7556  -13.1375 C   0  0  0  0  0  0  0  0  0  0  0  0
   -7.7097   10.5633  -13.0339 C   0  0  0  0  0  0  0  0  0  0  0  0
   -6.5001   11.8056  -10.7491 C   0  0  0  0  0  0  0  0  0  0  0  0
   -6.8506   12.3073  -14.3824 O   0  0  0  0  0  0  0  0  0  0  0  0
   -5.5377   13.6382  -12.2001 C   0  0  0  0  0  0  0  0  0  0  0  0
   -5.9500   14.5444  -12.9177 O   0  0  0  0  0  0  0  0  0  0  0  0
   -7.2308   10.6159  -10.6131 C   0  0  0  0  0  0  0  0  0  0  0  0
   -7.8083   10.0113  -11.7524 C   0  0  0  0  0  0  0  0  0  0  0  0
   -8.4200    8.8675  -11.2880 N   0  0  0  0  0  0  0  0  0  0  0  0
   -8.2847    8.7400   -9.9757 N   0  0  0  0  0  0  0  0  0  0  0  0
   -7.6047    9.7473   -9.5145 C   0  0  0  0  0  0  0  0  0  0  0  0
   -7.3264    9.8951   -8.0245 C   0  0  0  0  0  0  0  0  0  0  0  0
   -5.9604   10.4805   -7.7353 C   0  0  0  0  0  0  0  0  0  0  0  0
   -4.8075    9.7596   -8.0491 C   0  0  0  0  0  0  0  0  0  0  0  0
   -3.4358   11.5809   -7.2415 C   0  0  0  0  0  0  0  0  0  0  0  0
   -4.5835   12.3061   -6.9225 C   0  0  0  0  0  0  0  0  0  0  0  0
   -3.5481   10.3107   -7.8024 C   0  0  0  0  0  0  0  0  0  0  0  0
   -5.8471   11.7541   -7.1666 C   0  0  0  0  0  0  0  0  0  0  0  0
   -4.4650   13.6954   -6.3241 C   0  0  0  0  0  0  0  0  0  0  0  0
   -1.6558   12.5461  -10.1051 H   0  0  0  0  0  0  0  0  0  0  0  0
   -2.1418   14.8314   -9.9056 H   0  0  0  0  0  0  0  0  0  0  0  0
   -1.3273   14.8503  -11.5065 H   0  0  0  0  0  0  0  0  0  0  0  0
   -3.9292   11.6343  -11.3361 H   0  0  0  0  0  0  0  0  0  0  0  0
   -4.0052   12.5329   -9.7825 H   0  0  0  0  0  0  0  0  0  0  0  0
   -1.6986   11.5246  -12.1863 H   0  0  0  0  0  0  0  0  0  0  0  0
   -3.9654   15.7526  -11.0614 H   0  0  0  0  0  0  0  0  0  0  0  0
   -3.3451   15.2065  -12.6563 H   0  0  0  0  0  0  0  0  0  0  0  0
   -8.7298   10.7663  -13.3920 H   0  0  0  0  0  0  0  0  0  0  0  0
   -7.2340    9.8162  -13.6862 H   0  0  0  0  0  0  0  0  0  0  0  0
   -5.4892   11.6119  -10.3610 H   0  0  0  0  0  0  0  0  0  0  0  0
   -6.9942   12.5634  -10.1232 H   0  0  0  0  0  0  0  0  0  0  0  0
   -6.4002   14.1748  -13.6682 H   0  0  0  0  0  0  0  0  0  0  0  0
   -8.0295    9.6121   -7.2551 H   0  0  0  0  0  0  0  0  0  0  0  0
   -4.8892    8.7741   -8.4833 H   0  0  0  0  0  0  0  0  0  0  0  0
   -2.4600   12.0040   -7.0537 H   0  0  0  0  0  0  0  0  0  0  0  0
   -2.6581    9.7501   -8.0474 H   0  0  0  0  0  0  0  0  0  0  0  0
   -6.7366   12.3128   -6.9153 H   0  0  0  0  0  0  0  0  0  0  0  0
   -4.4364   14.4418   -7.1316 H   0  0  0  0  0  0  0  0  0  0  0  0
   -5.3317   13.8902   -5.6754 H   0  0  0  0  0  0  0  0  0  0  0  0
   -3.5409   13.7615   -5.7311 H   0  0  0  0  0  0  0  0  0  0  0  0
  1  2  1  0  0  0  0
  1  3  1  0  0  0  0
  1  4  1  0  0  0  0
  2  5  1  0  0  0  0
  3  6  1  0  0  0  0
  5  6  1  0  0  0  0
  6 12  1  0  0  0  0
  7  8  1  0  0  0  0
  7 10  1  0  0  0  0
  7 12  2  0  0  0  0
  8  9  1  0  0  0  0
  8 11  2  0  0  0  0
  9 15  1  0  0  0  0
 10 14  1  0  0  0  0
 12 13  1  0  0  0  0
 14 15  2  0  0  0  0
 14 18  1  0  0  0  0
 15 16  1  0  0  0  0
 16 17  2  0  0  0  0
 17 18  1  0  0  0  0
 18 19  2  0  0  0  0
 19 20  1  0  0  0  0
 20 21  2  0  0  0  0
 20 25  1  0  0  0  0
 21 24  1  0  0  0  0
 22 23  1  0  0  0  0
 22 24  2  0  0  0  0
 23 25  2  0  0  0  0
 23 26  1  0  0  0  0
  1 27  1  0  0  0  0
  2 28  1  0  0  0  0
  2 29  1  0  0  0  0
  3 30  1  0  0  0  0
  3 31  1  0  0  0  0
  4 32  1  0  0  0  0
  5 33  1  0  0  0  0
  5 34  1  0  0  0  0
  9 35  1  0  0  0  0
  9 36  1  0  0  0  0
 10 37  1  0  0  0  0
 10 38  1  0  0  0  0
 13 39  1  0  0  0  0
 19 40  1  0  0  0  0
 21 41  1  0  0  0  0
 22 42  1  0  0  0  0
 24 43  1  0  0  0  0
 25 44  1  0  0  0  0
 26 45  1  0  0  0  0
 26 46  1  0  0  0  0
 26 47  1  0  0  0  0
M  END
> <Name>
13

> <IC50[uM]>
0.006

$$$$
13
  -OEChem-05192314333D
 Structure written by MMmdl.
 47 50  0     1  0  0  0  0  0999 V2000
   -2.2088   12.9419  -10.9697 C   0  0  1  0  0  0  0  0  0  0  0  0
   -2.1904   14.4671  -10.9424 C   0  0  0  0  0  0  0  0  0  0  0  0
   -3.6992   12.5876  -10.8377 C   0  0  0  0  0  0  0  0  0  0  0  0
   -1.6826   12.4744  -12.1795 O   0  0  0  0  0  0  0  0  0  0  0  0
   -3.5107   14.9139  -11.6089 C   0  0  0  0  0  0  0  0  0  0  0  0
   -4.3443   13.7200  -11.5243 N   0  0  0  0  0  0  0  0  0  0  0  0
   -6.3525   12.3601  -12.0338 C   0  0  0  0  0  0  0  0  0  0  0  0
   -6.9727   11.7556  -13.1375 C   0  0  0  0  0  0  0  0  0  0  0  0
   -7.7097   10.5633  -13.0339 C   0  0  0  0  0  0  0  0  0  0  0  0
   -6.5001   11.8056  -10.7491 C   0  0  0  0  0  0  0  0  0  0  0  0
   -6.8506   12.3073  -14.3824 O   0  0  0  0  0  0  0  0  0  0  0  0
   -5.5377   13.6382  -12.2001 C   0  0  0  0  0  0  0  0  0  0  0  0
   -5.9500   14.5444  -12.9177 O   0  0  0  0  0  0  0  0  0  0  0  0
   -7.2308   10.6159  -10.6131 C   0  0  0  0  0  0  0  0  0  0  0  0
   -7.8083   10.0113  -11.7524 C   0  0  0  0  0  0  0  0  0  0  0  0
   -8.4200    8.8675  -11.2880 N   0  0  0  0  0  0  0  0  0  0  0  0
   -8.2847    8.7400   -9.9757 N   0  0  0  0  0  0  0  0  0  0  0  0
   -7.6047    9.7473   -9.5145 C   0  0  0  0  0  0  0  0  0  0  0  0
   -7.3264    9.8951   -8.0245 C   0  0  0  0  0  0  0  0  0  0  0  0
   -5.9604   10.4805   -7.7353 C   0  0  0  0  0  0  0  0  0  0  0  0
   -4.8075    9.7596   -8.0491 C   0  0  0  0  0  0  0  0  0  0  0  0
   -3.4358   11.5809   -7.2415 C   0  0  0  0  0  0  0  0  0  0  0  0
   -4.5835   12.3061   -6.9225 C   0  0  0  0  0  0  0  0  0  0  0  0
   -3.5481   10.3107   -7.8024 C   0  0  0  0  0  0  0  0  0  0  0  0
   -5.8471   11.7541   -7.1666 C   0  0  0  0  0  0  0  0  0  0  0  0
   -4.4650   13.6954   -6.3241 C   0  0  0  0  0  0  0  0  0  0  0  0
   -1.6558   12.5461  -10.1051 H   0  0  0  0  0  0  0  0  0  0  0  0
   -2.1418   14.8314   -9.9056 H   0  0  0  0  0  0  0  0  0  0  0  0
   -1.3273   14.8503  -11.5065 H   0  0  0  0  0  0  0  0  0  0  0  0
   -3.9292   11.6343  -11.3361 H   0  0  0  0  0  0  0  0  0  0  0  0
   -4.0052   12.5329   -9.7825 H   0  0  0  0  0  0  0  0  0  0  0  0
   -1.6986   11.5246  -12.1863 H   0  0  0  0  0  0  0  0  0  0  0  0
   -3.9654   15.7526  -11.0614 H   0  0  0  0  0  0  0  0  0  0  0  0
   -3.3451   15.2065  -12.6563 H   0  0  0  0  0  0  0  0  0  0  0  0
   -8.1726   10.1006  -13.8930 H   0  0  0  0  0  0  0  0  0  0  0  0
   -6.0607   12.2852   -9.8870 H   0  0  0  0  0  0  0  0  0  0  0  0
   -6.4002   14.1748  -13.6682 H   0  0  0  0  0  0  0  0  0  0  0  0
   -6.6702    9.1804   -9.6379 H   0  0  0  0  0  0  0  0  0  0  0  0
   -8.0906   10.5553   -7.5885 H   0  0  0  0  0  0  0  0  0  0  0  0
   -7.3891    8.9020   -7.5556 H   0  0  0  0  0  0  0  0  0  0  0  0
   -4.8892    8.7741   -8.4833 H   0  0  0  0  0  0  0  0  0  0  0  0
   -2.4600   12.0040   -7.0537 H   0  0  0  0  0  0  0  0  0  0  0  0
   -2.6581    9.7501   -8.0474 H   0  0  0  0  0  0  0  0  0  0  0  0
   -6.7366   12.3128   -6.9153 H   0  0  0  0  0  0  0  0  0  0  0  0
   -4.4364   14.4418   -7.1316 H   0  0  0  0  0  0  0  0  0  0  0  0
   -5.3317   13.8902   -5.6754 H   0  0  0  0  0  0  0  0  0  0  0  0
   -3.5409   13.7615   -5.7311 H   0  0  0  0  0  0  0  0  0  0  0  0
  1  2  1  0  0  0  0
  1  3  1  0  0  0  0
  1  4  1  0  0  0  0
  2  5  1  0  0  0  0
  3  6  1  0  0  0  0
  5  6  1  0  0  0  0
  6 12  1  0  0  0  0
  7  8  1  0  0  0  0
  7 10  1  0  0  0  0
  7 12  2  0  0  0  0
  8  9  1  0  0  0  0
  8 11  2  0  0  0  0
  9 15  2  0  0  0  0
 10 14  2  0  0  0  0
 12 13  1  0  0  0  0
 14 15  1  0  0  0  0
 14 18  1  0  0  0  0
 15 16  1  0  0  0  0
 16 17  2  0  0  0  0
 17 18  1  0  0  0  0
 18 19  1  0  0  0  0
 19 20  1  0  0  0  0
 20 21  2  0  0  0  0
 20 25  1  0  0  0  0
 21 24  1  0  0  0  0
 22 23  1  0  0  0  0
 22 24  2  0  0  0  0
 23 25  2  0  0  0  0
 23 26  1  0  0  0  0
  1 27  1  0  0  0  0
  2 28  1  0  0  0  0
  2 29  1  0  0  0  0
  3 30  1  0  0  0  0
  3 31  1  0  0  0  0
  4 32  1  0  0  0  0
  5 33  1  0  0  0  0
  5 34  1  0  0  0  0
  9 35  1  0  0  0  0
 10 36  1  0  0  0  0
 13 37  1  0  0  0  0
 18 38  1  0  0  0  0
 19 39  1  0  0  0  0
 19 40  1  0  0  0  0
 21 41  1  0  0  0  0
 22 42  1  0  0  0  0
 24 43  1  0  0  0  0
 25 44  1  0  0  0  0
 26 45  1  0  0  0  0
 26 46  1  0  0  0  0
 26 47  1  0  0  0  0
M  END
> <Name>
13

> <IC50[uM]>
0.006

$$$$
13
  -OEChem-05192314333D
 Structure written by MMmdl.
 47 50  0     1  0  0  0  0  0999 V2000
   -2.2088   12.9419  -10.9697 C   0  0  1  0  0  0  0  0  0  0  0  0
   -2.1904   14.4671  -10.9424 C   0  0  0  0  0  0  0  0  0  0  0  0
   -3.6992   12.5876  -10.8377 C   0  0  0  0  0  0  0  0  0  0  0  0
   -1.6826   12.4744  -12.1795 O   0  0  0  0  0  0  0  0  0  0  0  0
   -3.5107   14.9139  -11.6089 C   0  0  0  0  0  0  0  0  0  0  0  0
   -4.3443   13.7200  -11.5243 N   0  0  0  0  0  0  0  0  0  0  0  0
   -6.3525   12.3601  -12.0338 C   0  0  0  0  0  0  0  0  0  0  0  0
   -6.9727   11.7556  -13.1375 C   0  0  0  0  0  0  0  0  0  0  0  0
   -7.7097   10.5633  -13.0339 C   0  0  0  0  0  0  0  0  0  0  0  0
   -6.5001   11.8056  -10.7491 C   0  0  0  0  0  0  0  0  0  0  0  0
   -6.8506   12.3073  -14.3824 O   0  0  0  0  0  0  0  0  0  0  0  0
   -5.5377   13.6382  -12.2001 C   0  0  0  0  0  0  0  0  0  0  0  0
   -5.9500   14.5444  -12.9177 O   0  0  0  0  0  0  0  0  0  0  0  0
   -7.2308   10.6159  -10.6131 C   0  0  0  0  0  0  0  0  0  0  0  0
   -7.8083   10.0113  -11.7524 C   0  0  0  0  0  0  0  0  0  0  0  0
   -8.4200    8.8675  -11.2880 N   0  0  0  0  0  0  0  0  0  0  0  0
   -8.2847    8.7400   -9.9757 N   0  0  0  0  0  0  0  0  0  0  0  0
   -7.6047    9.7473   -9.5145 C   0  0  0  0  0  0  0  0  0  0  0  0
   -7.3264    9.8951   -8.0245 C   0  0  0  0  0  0  0  0  0  0  0  0
   -5.9604   10.4805   -7.7353 C   0  0  0  0  0  0  0  0  0  0  0  0
   -4.8075    9.7596   -8.0491 C   0  0  0  0  0  0  0  0  0  0  0  0
   -3.4358   11.5809   -7.2415 C   0  0  0  0  0  0  0  0  0  0  0  0
   -4.5835   12.3061   -6.9225 C   0  0  0  0  0  0  0  0  0  0  0  0
   -3.5481   10.3107   -7.8024 C   0  0  0  0  0  0  0  0  0  0  0  0
   -5.8471   11.7541   -7.1666 C   0  0  0  0  0  0  0  0  0  0  0  0
   -4.4650   13.6954   -6.3241 C   0  0  0  0  0  0  0  0  0  0  0  0
   -1.6558   12.5461  -10.1051 H   0  0  0  0  0  0  0  0  0  0  0  0
   -2.1418   14.8314   -9.9056 H   0  0  0  0  0  0  0  0  0  0  0  0
   -1.3273   14.8503  -11.5065 H   0  0  0  0  0  0  0  0  0  0  0  0
   -3.9292   11.6343  -11.3361 H   0  0  0  0  0  0  0  0  0  0  0  0
   -4.0052   12.5329   -9.7825 H   0  0  0  0  0  0  0  0  0  0  0  0
   -1.6986   11.5246  -12.1863 H   0  0  0  0  0  0  0  0  0  0  0  0
   -3.9654   15.7526  -11.0614 H   0  0  0  0  0  0  0  0  0  0  0  0
   -3.3451   15.2065  -12.6563 H   0  0  0  0  0  0  0  0  0  0  0  0
   -8.1726   10.1006  -13.8930 H   0  0  0  0  0  0  0  0  0  0  0  0
   -5.4892   11.6119  -10.3610 H   0  0  0  0  0  0  0  0  0  0  0  0
   -6.9942   12.5634  -10.1232 H   0  0  0  0  0  0  0  0  0  0  0  0
   -6.4002   14.1748  -13.6682 H   0  0  0  0  0  0  0  0  0  0  0  0
   -8.0906   10.5553   -7.5885 H   0  0  0  0  0  0  0  0  0  0  0  0
   -7.3891    8.9020   -7.5556 H   0  0  0  0  0  0  0  0  0  0  0  0
   -4.8892    8.7741   -8.4833 H   0  0  0  0  0  0  0  0  0  0  0  0
   -2.4600   12.0040   -7.0537 H   0  0  0  0  0  0  0  0  0  0  0  0
   -2.6581    9.7501   -8.0474 H   0  0  0  0  0  0  0  0  0  0  0  0
   -6.7366   12.3128   -6.9153 H   0  0  0  0  0  0  0  0  0  0  0  0
   -4.4364   14.4418   -7.1316 H   0  0  0  0  0  0  0  0  0  0  0  0
   -5.3317   13.8902   -5.6754 H   0  0  0  0  0  0  0  0  0  0  0  0
   -3.5409   13.7615   -5.7311 H   0  0  0  0  0  0  0  0  0  0  0  0
  1  2  1  0  0  0  0
  1  3  1  0  0  0  0
  1  4  1  0  0  0  0
  2  5  1  0  0  0  0
  3  6  1  0  0  0  0
  5  6  1  0  0  0  0
  6 12  1  0  0  0  0
  7  8  1  0  0  0  0
  7 10  1  0  0  0  0
  7 12  2  0  0  0  0
  8  9  1  0  0  0  0
  8 11  2  0  0  0  0
  9 15  2  0  0  0  0
 10 14  1  0  0  0  0
 12 13  1  0  0  0  0
 14 15  1  0  0  0  0
 14 18  2  0  0  0  0
 15 16  1  0  0  0  0
 16 17  2  0  0  0  0
 17 18  1  0  0  0  0
 18 19  1  0  0  0  0
 19 20  1  0  0  0  0
 20 21  2  0  0  0  0
 20 25  1  0  0  0  0
 21 24  1  0  0  0  0
 22 23  1  0  0  0  0
 22 24  2  0  0  0  0
 23 25  2  0  0  0  0
 23 26  1  0  0  0  0
  1 27  1  0  0  0  0
  2 28  1  0  0  0  0
  2 29  1  0  0  0  0
  3 30  1  0  0  0  0
  3 31  1  0  0  0  0
  4 32  1  0  0  0  0
  5 33  1  0  0  0  0
  5 34  1  0  0  0  0
  9 35  1  0  0  0  0
 10 36  1  0  0  0  0
 10 37  1  0  0  0  0
 13 38  1  0  0  0  0
 19 39  1  0  0  0  0
 19 40  1  0  0  0  0
 21 41  1  0  0  0  0
 22 42  1  0  0  0  0
 24 43  1  0  0  0  0
 25 44  1  0  0  0  0
 26 45  1  0  0  0  0
 26 46  1  0  0  0  0
 26 47  1  0  0  0  0
M  END
> <Name>
13

> <IC50[uM]>
0.006

$$$$
13
  -OEChem-05192314333D
 Structure written by MMmdl.
 47 50  0     1  0  0  0  0  0999 V2000
   -2.2088   12.9419  -10.9697 C   0  0  1  0  0  0  0  0  0  0  0  0
   -2.1904   14.4671  -10.9424 C   0  0  0  0  0  0  0  0  0  0  0  0
   -3.6992   12.5876  -10.8377 C   0  0  0  0  0  0  0  0  0  0  0  0
   -1.6826   12.4744  -12.1795 O   0  0  0  0  0  0  0  0  0  0  0  0
   -3.5107   14.9139  -11.6089 C   0  0  0  0  0  0  0  0  0  0  0  0
   -4.3443   13.7200  -11.5243 N   0  0  0  0  0  0  0  0  0  0  0  0
   -6.3525   12.3601  -12.0338 C   0  0  0  0  0  0  0  0  0  0  0  0
   -6.9727   11.7556  -13.1375 C   0  0  0  0  0  0  0  0  0  0  0  0
   -7.7097   10.5633  -13.0339 C   0  0  0  0  0  0  0  0  0  0  0  0
   -6.5001   11.8056  -10.7491 C   0  0  0  0  0  0  0  0  0  0  0  0
   -6.8506   12.3073  -14.3824 O   0  0  0  0  0  0  0  0  0  0  0  0
   -5.5377   13.6382  -12.2001 C   0  0  0  0  0  0  0  0  0  0  0  0
   -5.9500   14.5444  -12.9177 O   0  0  0  0  0  0  0  0  0  0  0  0
   -7.2308   10.6159  -10.6131 C   0  0  0  0  0  0  0  0  0  0  0  0
   -7.8083   10.0113  -11.7524 C   0  0  0  0  0  0  0  0  0  0  0  0
   -8.4200    8.8675  -11.2880 N   0  0  0  0  0  0  0  0  0  0  0  0
   -8.2847    8.7400   -9.9757 N   0  0  0  0  0  0  0  0  0  0  0  0
   -7.6047    9.7473   -9.5145 C   0  0  0  0  0  0  0  0  0  0  0  0
   -7.3264    9.8951   -8.0245 C   0  0  0  0  0  0  0  0  0  0  0  0
   -5.9604   10.4805   -7.7353 C   0  0  0  0  0  0  0  0  0  0  0  0
   -4.8075    9.7596   -8.0491 C   0  0  0  0  0  0  0  0  0  0  0  0
   -3.4358   11.5809   -7.2415 C   0  0  0  0  0  0  0  0  0  0  0  0
   -4.5835   12.3061   -6.9225 C   0  0  0  0  0  0  0  0  0  0  0  0
   -3.5481   10.3107   -7.8024 C   0  0  0  0  0  0  0  0  0  0  0  0
   -5.8471   11.7541   -7.1666 C   0  0  0  0  0  0  0  0  0  0  0  0
   -4.4650   13.6954   -6.3241 C   0  0  0  0  0  0  0  0  0  0  0  0
   -1.6558   12.5461  -10.1051 H   0  0  0  0  0  0  0  0  0  0  0  0
   -2.1418   14.8314   -9.9056 H   0  0  0  0  0  0  0  0  0  0  0  0
   -1.3273   14.8503  -11.5065 H   0  0  0  0  0  0  0  0  0  0  0  0
   -3.9292   11.6343  -11.3361 H   0  0  0  0  0  0  0  0  0  0  0  0
   -4.0052   12.5329   -9.7825 H   0  0  0  0  0  0  0  0  0  0  0  0
   -1.6986   11.5246  -12.1863 H   0  0  0  0  0  0  0  0  0  0  0  0
   -3.9654   15.7526  -11.0614 H   0  0  0  0  0  0  0  0  0  0  0  0
   -3.3451   15.2065  -12.6563 H   0  0  0  0  0  0  0  0  0  0  0  0
   -5.4494   11.7544  -12.1998 H   0  0  0  0  0  0  0  0  0  0  0  0
   -8.1726   10.1006  -13.8930 H   0  0  0  0  0  0  0  0  0  0  0  0
   -6.0607   12.2852   -9.8870 H   0  0  0  0  0  0  0  0  0  0  0  0
   -6.0573   14.0826  -11.3384 H   0  0  0  0  0  0  0  0  0  0  0  0
   -6.4002   14.1748  -13.6682 H   0  0  0  0  0  0  0  0  0  0  0  0
   -8.0295    9.6121   -7.2551 H   0  0  0  0  0  0  0  0  0  0  0  0
   -4.8892    8.7741   -8.4833 H   0  0  0  0  0  0  0  0  0  0  0  0
   -2.4600   12.0040   -7.0537 H   0  0  0  0  0  0  0  0  0  0  0  0
   -2.6581    9.7501   -8.0474 H   0  0  0  0  0  0  0  0  0  0  0  0
   -6.7366   12.3128   -6.9153 H   0  0  0  0  0  0  0  0  0  0  0  0
   -4.4364   14.4418   -7.1316 H   0  0  0  0  0  0  0  0  0  0  0  0
   -5.3317   13.8902   -5.6754 H   0  0  0  0  0  0  0  0  0  0  0  0
   -3.5409   13.7615   -5.7311 H   0  0  0  0  0  0  0  0  0  0  0  0
  1  2  1  0  0  0  0
  1  3  1  0  0  0  0
  1  4  1  0  0  0  0
  2  5  1  0  0  0  0
  3  6  1  0  0  0  0
  5  6  1  0  0  0  0
  6 12  1  0  0  0  0
  7  8  1  0  0  0  0
  7 10  1  0  0  0  0
  7 12  1  0  0  0  0
  8  9  1  0  0  0  0
  8 11  2  0  0  0  0
  9 15  2  0  0  0  0
 10 14  2  0  0  0  0
 12 13  1  0  0  0  0
 14 15  1  0  0  0  0
 14 18  1  0  0  0  0
 15 16  1  0  0  0  0
 16 17  2  0  0  0  0
 17 18  1  0  0  0  0
 18 19  2  0  0  0  0
 19 20  1  0  0  0  0
 20 21  2  0  0  0  0
 20 25  1  0  0  0  0
 21 24  1  0  0  0  0
 22 23  1  0  0  0  0
 22 24  2  0  0  0  0
 23 25  2  0  0  0  0
 23 26  1  0  0  0  0
  1 27  1  0  0  0  0
  2 28  1  0  0  0  0
  2 29  1  0  0  0  0
  3 30  1  0  0  0  0
  3 31  1  0  0  0  0
  4 32  1  0  0  0  0
  5 33  1  0  0  0  0
  5 34  1  0  0  0  0
  7 35  1  0  0  0  0
  9 36  1  0  0  0  0
 10 37  1  0  0  0  0
 12 38  1  0  0  0  0
 13 39  1  0  0  0  0
 19 40  1  0  0  0  0
 21 41  1  0  0  0  0
 22 42  1  0  0  0  0
 24 43  1  0  0  0  0
 25 44  1  0  0  0  0
 26 45  1  0  0  0  0
 26 46  1  0  0  0  0
 26 47  1  0  0  0  0
M  END
> <Name>
13

> <IC50[uM]>
0.006

$$$$
13
  -OEChem-05192314333D
 Structure written by MMmdl.
 47 50  0     1  0  0  0  0  0999 V2000
   -2.2088   12.9419  -10.9697 C   0  0  1  0  0  0  0  0  0  0  0  0
   -2.1904   14.4671  -10.9424 C   0  0  0  0  0  0  0  0  0  0  0  0
   -3.6992   12.5876  -10.8377 C   0  0  0  0  0  0  0  0  0  0  0  0
   -1.6826   12.4744  -12.1795 O   0  0  0  0  0  0  0  0  0  0  0  0
   -3.5107   14.9139  -11.6089 C   0  0  0  0  0  0  0  0  0  0  0  0
   -4.3443   13.7200  -11.5243 N   0  0  0  0  0  0  0  0  0  0  0  0
   -6.3525   12.3601  -12.0338 C   0  0  0  0  0  0  0  0  0  0  0  0
   -6.9727   11.7556  -13.1375 C   0  0  0  0  0  0  0  0  0  0  0  0
   -7.7097   10.5633  -13.0339 C   0  0  0  0  0  0  0  0  0  0  0  0
   -6.5001   11.8056  -10.7491 C   0  0  0  0  0  0  0  0  0  0  0  0
   -6.8506   12.3073  -14.3824 O   0  0  0  0  0  0  0  0  0  0  0  0
   -5.5377   13.6382  -12.2001 C   0  0  0  0  0  0  0  0  0  0  0  0
   -5.9500   14.5444  -12.9177 O   0  0  0  0  0  0  0  0  0  0  0  0
   -7.2308   10.6159  -10.6131 C   0  0  0  0  0  0  0  0  0  0  0  0
   -7.8083   10.0113  -11.7524 C   0  0  0  0  0  0  0  0  0  0  0  0
   -8.4200    8.8675  -11.2880 N   0  0  0  0  0  0  0  0  0  0  0  0
   -8.2847    8.7400   -9.9757 N   0  0  0  0  0  0  0  0  0  0  0  0
   -7.6047    9.7473   -9.5145 C   0  0  0  0  0  0  0  0  0  0  0  0
   -7.3264    9.8951   -8.0245 C   0  0  0  0  0  0  0  0  0  0  0  0
   -5.9604   10.4805   -7.7353 C   0  0  0  0  0  0  0  0  0  0  0  0
   -4.8075    9.7596   -8.0491 C   0  0  0  0  0  0  0  0  0  0  0  0
   -3.4358   11.5809   -7.2415 C   0  0  0  0  0  0  0  0  0  0  0  0
   -4.5835   12.3061   -6.9225 C   0  0  0  0  0  0  0  0  0  0  0  0
   -3.5481   10.3107   -7.8024 C   0  0  0  0  0  0  0  0  0  0  0  0
   -5.8471   11.7541   -7.1666 C   0  0  0  0  0  0  0  0  0  0  0  0
   -4.4650   13.6954   -6.3241 C   0  0  0  0  0  0  0  0  0  0  0  0
   -1.6558   12.5461  -10.1051 H   0  0  0  0  0  0  0  0  0  0  0  0
   -2.1418   14.8314   -9.9056 H   0  0  0  0  0  0  0  0  0  0  0  0
   -1.3273   14.8503  -11.5065 H   0  0  0  0  0  0  0  0  0  0  0  0
   -3.9292   11.6343  -11.3361 H   0  0  0  0  0  0  0  0  0  0  0  0
   -4.0052   12.5329   -9.7825 H   0  0  0  0  0  0  0  0  0  0  0  0
   -1.6986   11.5246  -12.1863 H   0  0  0  0  0  0  0  0  0  0  0  0
   -3.9654   15.7526  -11.0614 H   0  0  0  0  0  0  0  0  0  0  0  0
   -3.3451   15.2065  -12.6563 H   0  0  0  0  0  0  0  0  0  0  0  0
   -8.1726   10.1006  -13.8930 H   0  0  0  0  0  0  0  0  0  0  0  0
   -6.0607   12.2852   -9.8870 H   0  0  0  0  0  0  0  0  0  0  0  0
   -6.0573   14.0826  -11.3384 H   0  0  0  0  0  0  0  0  0  0  0  0
   -6.4002   14.1748  -13.6682 H   0  0  0  0  0  0  0  0  0  0  0  0
   -6.3117   10.0311  -10.7657 H   0  0  0  0  0  0  0  0  0  0  0  0
   -8.0295    9.6121   -7.2551 H   0  0  0  0  0  0  0  0  0  0  0  0
   -4.8892    8.7741   -8.4833 H   0  0  0  0  0  0  0  0  0  0  0  0
   -2.4600   12.0040   -7.0537 H   0  0  0  0  0  0  0  0  0  0  0  0
   -2.6581    9.7501   -8.0474 H   0  0  0  0  0  0  0  0  0  0  0  0
   -6.7366   12.3128   -6.9153 H   0  0  0  0  0  0  0  0  0  0  0  0
   -4.4364   14.4418   -7.1316 H   0  0  0  0  0  0  0  0  0  0  0  0
   -5.3317   13.8902   -5.6754 H   0  0  0  0  0  0  0  0  0  0  0  0
   -3.5409   13.7615   -5.7311 H   0  0  0  0  0  0  0  0  0  0  0  0
  1  2  1  0  0  0  0
  1  3  1  0  0  0  0
  1  4  1  0  0  0  0
  2  5  1  0  0  0  0
  3  6  1  0  0  0  0
  5  6  1  0  0  0  0
  6 12  1  0  0  0  0
  7  8  1  0  0  0  0
  7 10  2  0  0  0  0
  7 12  1  0  0  0  0
  8  9  1  0  0  0  0
  8 11  2  0  0  0  0
  9 15  2  0  0  0  0
 10 14  1  0  0  0  0
 12 13  1  0  0  0  0
 14 15  1  0  0  0  0
 14 18  1  0  0  0  0
 15 16  1  0  0  0  0
 16 17  2  0  0  0  0
 17 18  1  0  0  0  0
 18 19  2  0  0  0  0
 19 20  1  0  0  0  0
 20 21  2  0  0  0  0
 20 25  1  0  0  0  0
 21 24  1  0  0  0  0
 22 23  1  0  0  0  0
 22 24  2  0  0  0  0
 23 25  2  0  0  0  0
 23 26  1  0  0  0  0
  1 27  1  0  0  0  0
  2 28  1  0  0  0  0
  2 29  1  0  0  0  0
  3 30  1  0  0  0  0
  3 31  1  0  0  0  0
  4 32  1  0  0  0  0
  5 33  1  0  0  0  0
  5 34  1  0  0  0  0
  9 35  1  0  0  0  0
 10 36  1  0  0  0  0
 12 37  1  0  0  0  0
 13 38  1  0  0  0  0
 14 39  1  0  0  0  0
 19 40  1  0  0  0  0
 21 41  1  0  0  0  0
 22 42  1  0  0  0  0
 24 43  1  0  0  0  0
 25 44  1  0  0  0  0
 26 45  1  0  0  0  0
 26 46  1  0  0  0  0
 26 47  1  0  0  0  0
M  END
> <Name>
13

> <IC50[uM]>
0.006

$$$$
13
  -OEChem-05192314333D
 Structure written by MMmdl.
 47 50  0     1  0  0  0  0  0999 V2000
   -2.2088   12.9419  -10.9697 C   0  0  1  0  0  0  0  0  0  0  0  0
   -2.1904   14.4671  -10.9424 C   0  0  0  0  0  0  0  0  0  0  0  0
   -3.6992   12.5876  -10.8377 C   0  0  0  0  0  0  0  0  0  0  0  0
   -1.6826   12.4744  -12.1795 O   0  0  0  0  0  0  0  0  0  0  0  0
   -3.5107   14.9139  -11.6089 C   0  0  0  0  0  0  0  0  0  0  0  0
   -4.3443   13.7200  -11.5243 N   0  0  0  0  0  0  0  0  0  0  0  0
   -6.3525   12.3601  -12.0338 C   0  0  0  0  0  0  0  0  0  0  0  0
   -6.9727   11.7556  -13.1375 C   0  0  0  0  0  0  0  0  0  0  0  0
   -7.7097   10.5633  -13.0339 C   0  0  0  0  0  0  0  0  0  0  0  0
   -6.5001   11.8056  -10.7491 C   0  0  0  0  0  0  0  0  0  0  0  0
   -6.8506   12.3073  -14.3824 O   0  0  0  0  0  0  0  0  0  0  0  0
   -5.5377   13.6382  -12.2001 C   0  0  0  0  0  0  0  0  0  0  0  0
   -5.9500   14.5444  -12.9177 O   0  0  0  0  0  0  0  0  0  0  0  0
   -7.2308   10.6159  -10.6131 C   0  0  0  0  0  0  0  0  0  0  0  0
   -7.8083   10.0113  -11.7524 C   0  0  0  0  0  0  0  0  0  0  0  0
   -8.4200    8.8675  -11.2880 N   0  0  0  0  0  0  0  0  0  0  0  0
   -8.2847    8.7400   -9.9757 N   0  0  0  0  0  0  0  0  0  0  0  0
   -7.6047    9.7473   -9.5145 C   0  0  0  0  0  0  0  0  0  0  0  0
   -7.3264    9.8951   -8.0245 C   0  0  0  0  0  0  0  0  0  0  0  0
   -5.9604   10.4805   -7.7353 C   0  0  0  0  0  0  0  0  0  0  0  0
   -4.8075    9.7596   -8.0491 C   0  0  0  0  0  0  0  0  0  0  0  0
   -3.4358   11.5809   -7.2415 C   0  0  0  0  0  0  0  0  0  0  0  0
   -4.5835   12.3061   -6.9225 C   0  0  0  0  0  0  0  0  0  0  0  0
   -3.5481   10.3107   -7.8024 C   0  0  0  0  0  0  0  0  0  0  0  0
   -5.8471   11.7541   -7.1666 C   0  0  0  0  0  0  0  0  0  0  0  0
   -4.4650   13.6954   -6.3241 C   0  0  0  0  0  0  0  0  0  0  0  0
   -1.6558   12.5461  -10.1051 H   0  0  0  0  0  0  0  0  0  0  0  0
   -2.1418   14.8314   -9.9056 H   0  0  0  0  0  0  0  0  0  0  0  0
   -1.3273   14.8503  -11.5065 H   0  0  0  0  0  0  0  0  0  0  0  0
   -3.9292   11.6343  -11.3361 H   0  0  0  0  0  0  0  0  0  0  0  0
   -4.0052   12.5329   -9.7825 H   0  0  0  0  0  0  0  0  0  0  0  0
   -1.6986   11.5246  -12.1863 H   0  0  0  0  0  0  0  0  0  0  0  0
   -3.9654   15.7526  -11.0614 H   0  0  0  0  0  0  0  0  0  0  0  0
   -3.3451   15.2065  -12.6563 H   0  0  0  0  0  0  0  0  0  0  0  0
   -8.7298   10.7663  -13.3920 H   0  0  0  0  0  0  0  0  0  0  0  0
   -7.2340    9.8162  -13.6862 H   0  0  0  0  0  0  0  0  0  0  0  0
   -6.0607   12.2852   -9.8870 H   0  0  0  0  0  0  0  0  0  0  0  0
   -6.0573   14.0826  -11.3384 H   0  0  0  0  0  0  0  0  0  0  0  0
   -6.4002   14.1748  -13.6682 H   0  0  0  0  0  0  0  0  0  0  0  0
   -8.0295    9.6121   -7.2551 H   0  0  0  0  0  0  0  0  0  0  0  0
   -4.8892    8.7741   -8.4833 H   0  0  0  0  0  0  0  0  0  0  0  0
   -2.4600   12.0040   -7.0537 H   0  0  0  0  0  0  0  0  0  0  0  0
   -2.6581    9.7501   -8.0474 H   0  0  0  0  0  0  0  0  0  0  0  0
   -6.7366   12.3128   -6.9153 H   0  0  0  0  0  0  0  0  0  0  0  0
   -4.4364   14.4418   -7.1316 H   0  0  0  0  0  0  0  0  0  0  0  0
   -5.3317   13.8902   -5.6754 H   0  0  0  0  0  0  0  0  0  0  0  0
   -3.5409   13.7615   -5.7311 H   0  0  0  0  0  0  0  0  0  0  0  0
  1  2  1  0  0  0  0
  1  3  1  0  0  0  0
  1  4  1  0  0  0  0
  2  5  1  0  0  0  0
  3  6  1  0  0  0  0
  5  6  1  0  0  0  0
  6 12  1  0  0  0  0
  7  8  1  0  0  0  0
  7 10  2  0  0  0  0
  7 12  1  0  0  0  0
  8  9  1  0  0  0  0
  8 11  2  0  0  0  0
  9 15  1  0  0  0  0
 10 14  1  0  0  0  0
 12 13  1  0  0  0  0
 14 15  2  0  0  0  0
 14 18  1  0  0  0  0
 15 16  1  0  0  0  0
 16 17  2  0  0  0  0
 17 18  1  0  0  0  0
 18 19  2  0  0  0  0
 19 20  1  0  0  0  0
 20 21  2  0  0  0  0
 20 25  1  0  0  0  0
 21 24  1  0  0  0  0
 22 23  1  0  0  0  0
 22 24  2  0  0  0  0
 23 25  2  0  0  0  0
 23 26  1  0  0  0  0
  1 27  1  0  0  0  0
  2 28  1  0  0  0  0
  2 29  1  0  0  0  0
  3 30  1  0  0  0  0
  3 31  1  0  0  0  0
  4 32  1  0  0  0  0
  5 33  1  0  0  0  0
  5 34  1  0  0  0  0
  9 35  1  0  0  0  0
  9 36  1  0  0  0  0
 10 37  1  0  0  0  0
 12 38  1  0  0  0  0
 13 39  1  0  0  0  0
 19 40  1  0  0  0  0
 21 41  1  0  0  0  0
 22 42  1  0  0  0  0
 24 43  1  0  0  0  0
 25 44  1  0  0  0  0
 26 45  1  0  0  0  0
 26 46  1  0  0  0  0
 26 47  1  0  0  0  0
M  END
> <Name>
13

> <IC50[uM]>
0.006

$$$$
13
  -OEChem-05192314333D
 Structure written by MMmdl.
 47 50  0     1  0  0  0  0  0999 V2000
   -2.2088   12.9419  -10.9697 C   0  0  1  0  0  0  0  0  0  0  0  0
   -2.1904   14.4671  -10.9424 C   0  0  0  0  0  0  0  0  0  0  0  0
   -3.6992   12.5876  -10.8377 C   0  0  0  0  0  0  0  0  0  0  0  0
   -1.6826   12.4744  -12.1795 O   0  0  0  0  0  0  0  0  0  0  0  0
   -3.5107   14.9139  -11.6089 C   0  0  0  0  0  0  0  0  0  0  0  0
   -4.3443   13.7200  -11.5243 N   0  0  0  0  0  0  0  0  0  0  0  0
   -6.3525   12.3601  -12.0338 C   0  0  0  0  0  0  0  0  0  0  0  0
   -6.9727   11.7556  -13.1375 C   0  0  0  0  0  0  0  0  0  0  0  0
   -7.7097   10.5633  -13.0339 C   0  0  0  0  0  0  0  0  0  0  0  0
   -6.5001   11.8056  -10.7491 C   0  0  0  0  0  0  0  0  0  0  0  0
   -6.8506   12.3073  -14.3824 O   0  0  0  0  0  0  0  0  0  0  0  0
   -5.5377   13.6382  -12.2001 C   0  0  0  0  0  0  0  0  0  0  0  0
   -5.9500   14.5444  -12.9177 O   0  0  0  0  0  0  0  0  0  0  0  0
   -7.2308   10.6159  -10.6131 C   0  0  0  0  0  0  0  0  0  0  0  0
   -7.8083   10.0113  -11.7524 C   0  0  0  0  0  0  0  0  0  0  0  0
   -8.4200    8.8675  -11.2880 N   0  0  0  0  0  0  0  0  0  0  0  0
   -8.2847    8.7400   -9.9757 N   0  0  0  0  0  0  0  0  0  0  0  0
   -7.6047    9.7473   -9.5145 C   0  0  0  0  0  0  0  0  0  0  0  0
   -7.3264    9.8951   -8.0245 C   0  0  0  0  0  0  0  0  0  0  0  0
   -5.9604   10.4805   -7.7353 C   0  0  0  0  0  0  0  0  0  0  0  0
   -4.8075    9.7596   -8.0491 C   0  0  0  0  0  0  0  0  0  0  0  0
   -3.4358   11.5809   -7.2415 C   0  0  0  0  0  0  0  0  0  0  0  0
   -4.5835   12.3061   -6.9225 C   0  0  0  0  0  0  0  0  0  0  0  0
   -3.5481   10.3107   -7.8024 C   0  0  0  0  0  0  0  0  0  0  0  0
   -5.8471   11.7541   -7.1666 C   0  0  0  0  0  0  0  0  0  0  0  0
   -4.4650   13.6954   -6.3241 C   0  0  0  0  0  0  0  0  0  0  0  0
   -1.6558   12.5461  -10.1051 H   0  0  0  0  0  0  0  0  0  0  0  0
   -2.1418   14.8314   -9.9056 H   0  0  0  0  0  0  0  0  0  0  0  0
   -1.3273   14.8503  -11.5065 H   0  0  0  0  0  0  0  0  0  0  0  0
   -3.9292   11.6343  -11.3361 H   0  0  0  0  0  0  0  0  0  0  0  0
   -4.0052   12.5329   -9.7825 H   0  0  0  0  0  0  0  0  0  0  0  0
   -1.6986   11.5246  -12.1863 H   0  0  0  0  0  0  0  0  0  0  0  0
   -3.9654   15.7526  -11.0614 H   0  0  0  0  0  0  0  0  0  0  0  0
   -3.3451   15.2065  -12.6563 H   0  0  0  0  0  0  0  0  0  0  0  0
   -8.1726   10.1006  -13.8930 H   0  0  0  0  0  0  0  0  0  0  0  0
   -6.0607   12.2852   -9.8870 H   0  0  0  0  0  0  0  0  0  0  0  0
   -6.0573   14.0826  -11.3384 H   0  0  0  0  0  0  0  0  0  0  0  0
   -6.4002   14.1748  -13.6682 H   0  0  0  0  0  0  0  0  0  0  0  0
   -8.0906   10.5553   -7.5885 H   0  0  0  0  0  0  0  0  0  0  0  0
   -7.3891    8.9020   -7.5556 H   0  0  0  0  0  0  0  0  0  0  0  0
   -4.8892    8.7741   -8.4833 H   0  0  0  0  0  0  0  0  0  0  0  0
   -2.4600   12.0040   -7.0537 H   0  0  0  0  0  0  0  0  0  0  0  0
   -2.6581    9.7501   -8.0474 H   0  0  0  0  0  0  0  0  0  0  0  0
   -6.7366   12.3128   -6.9153 H   0  0  0  0  0  0  0  0  0  0  0  0
   -4.4364   14.4418   -7.1316 H   0  0  0  0  0  0  0  0  0  0  0  0
   -5.3317   13.8902   -5.6754 H   0  0  0  0  0  0  0  0  0  0  0  0
   -3.5409   13.7615   -5.7311 H   0  0  0  0  0  0  0  0  0  0  0  0
  1  2  1  0  0  0  0
  1  3  1  0  0  0  0
  1  4  1  0  0  0  0
  2  5  1  0  0  0  0
  3  6  1  0  0  0  0
  5  6  1  0  0  0  0
  6 12  1  0  0  0  0
  7  8  1  0  0  0  0
  7 10  2  0  0  0  0
  7 12  1  0  0  0  0
  8  9  1  0  0  0  0
  8 11  2  0  0  0  0
  9 15  2  0  0  0  0
 10 14  1  0  0  0  0
 12 13  1  0  0  0  0
 14 15  1  0  0  0  0
 14 18  2  0  0  0  0
 15 16  1  0  0  0  0
 16 17  2  0  0  0  0
 17 18  1  0  0  0  0
 18 19  1  0  0  0  0
 19 20  1  0  0  0  0
 20 21  2  0  0  0  0
 20 25  1  0  0  0  0
 21 24  1  0  0  0  0
 22 23  1  0  0  0  0
 22 24  2  0  0  0  0
 23 25  2  0  0  0  0
 23 26  1  0  0  0  0
  1 27  1  0  0  0  0
  2 28  1  0  0  0  0
  2 29  1  0  0  0  0
  3 30  1  0  0  0  0
  3 31  1  0  0  0  0
  4 32  1  0  0  0  0
  5 33  1  0  0  0  0
  5 34  1  0  0  0  0
  9 35  1  0  0  0  0
 10 36  1  0  0  0  0
 12 37  1  0  0  0  0
 13 38  1  0  0  0  0
 19 39  1  0  0  0  0
 19 40  1  0  0  0  0
 21 41  1  0  0  0  0
 22 42  1  0  0  0  0
 24 43  1  0  0  0  0
 25 44  1  0  0  0  0
 26 45  1  0  0  0  0
 26 46  1  0  0  0  0
 26 47  1  0  0  0  0
M  END
> <Name>
13

> <IC50[uM]>
0.006

$$$$
13
  -OEChem-05192314333D
 Structure written by MMmdl.
 47 50  0     1  0  0  0  0  0999 V2000
   -2.2088   12.9419  -10.9697 C   0  0  1  0  0  0  0  0  0  0  0  0
   -2.1904   14.4671  -10.9424 C   0  0  0  0  0  0  0  0  0  0  0  0
   -3.6992   12.5876  -10.8377 C   0  0  0  0  0  0  0  0  0  0  0  0
   -1.6826   12.4744  -12.1795 O   0  0  0  0  0  0  0  0  0  0  0  0
   -3.5107   14.9139  -11.6089 C   0  0  0  0  0  0  0  0  0  0  0  0
   -4.3443   13.7200  -11.5243 N   0  0  0  0  0  0  0  0  0  0  0  0
   -6.3525   12.3601  -12.0338 C   0  0  0  0  0  0  0  0  0  0  0  0
   -6.9727   11.7556  -13.1375 C   0  0  0  0  0  0  0  0  0  0  0  0
   -7.7097   10.5633  -13.0339 C   0  0  0  0  0  0  0  0  0  0  0  0
   -6.5001   11.8056  -10.7491 C   0  0  0  0  0  0  0  0  0  0  0  0
   -6.8506   12.3073  -14.3824 O   0  0  0  0  0  0  0  0  0  0  0  0
   -5.5377   13.6382  -12.2001 C   0  0  0  0  0  0  0  0  0  0  0  0
   -5.9500   14.5444  -12.9177 O   0  0  0  0  0  0  0  0  0  0  0  0
   -7.2308   10.6159  -10.6131 C   0  0  0  0  0  0  0  0  0  0  0  0
   -7.8083   10.0113  -11.7524 C   0  0  0  0  0  0  0  0  0  0  0  0
   -8.4200    8.8675  -11.2880 N   0  0  0  0  0  0  0  0  0  0  0  0
   -8.2847    8.7400   -9.9757 N   0  0  0  0  0  0  0  0  0  0  0  0
   -7.6047    9.7473   -9.5145 C   0  0  0  0  0  0  0  0  0  0  0  0
   -7.3264    9.8951   -8.0245 C   0  0  0  0  0  0  0  0  0  0  0  0
   -5.9604   10.4805   -7.7353 C   0  0  0  0  0  0  0  0  0  0  0  0
   -4.8075    9.7596   -8.0491 C   0  0  0  0  0  0  0  0  0  0  0  0
   -3.4358   11.5809   -7.2415 C   0  0  0  0  0  0  0  0  0  0  0  0
   -4.5835   12.3061   -6.9225 C   0  0  0  0  0  0  0  0  0  0  0  0
   -3.5481   10.3107   -7.8024 C   0  0  0  0  0  0  0  0  0  0  0  0
   -5.8471   11.7541   -7.1666 C   0  0  0  0  0  0  0  0  0  0  0  0
   -4.4650   13.6954   -6.3241 C   0  0  0  0  0  0  0  0  0  0  0  0
   -1.6558   12.5461  -10.1051 H   0  0  0  0  0  0  0  0  0  0  0  0
   -2.1418   14.8314   -9.9056 H   0  0  0  0  0  0  0  0  0  0  0  0
   -1.3273   14.8503  -11.5065 H   0  0  0  0  0  0  0  0  0  0  0  0
   -3.9292   11.6343  -11.3361 H   0  0  0  0  0  0  0  0  0  0  0  0
   -4.0052   12.5329   -9.7825 H   0  0  0  0  0  0  0  0  0  0  0  0
   -1.6986   11.5246  -12.1863 H   0  0  0  0  0  0  0  0  0  0  0  0
   -3.9654   15.7526  -11.0614 H   0  0  0  0  0  0  0  0  0  0  0  0
   -3.3451   15.2065  -12.6563 H   0  0  0  0  0  0  0  0  0  0  0  0
   -8.1726   10.1006  -13.8930 H   0  0  0  0  0  0  0  0  0  0  0  0
   -6.0607   12.2852   -9.8870 H   0  0  0  0  0  0  0  0  0  0  0  0
   -7.3269   11.7785  -15.0117 H   0  0  0  0  0  0  0  0  0  0  0  0
   -6.7868   14.2962  -13.2927 H   0  0  0  0  0  0  0  0  0  0  0  0
   -6.8802    9.4462  -11.9237 H   0  0  0  0  0  0  0  0  0  0  0  0
   -8.0295    9.6121   -7.2551 H   0  0  0  0  0  0  0  0  0  0  0  0
   -4.8892    8.7741   -8.4833 H   0  0  0  0  0  0  0  0  0  0  0  0
   -2.4600   12.0040   -7.0537 H   0  0  0  0  0  0  0  0  0  0  0  0
   -2.6581    9.7501   -8.0474 H   0  0  0  0  0  0  0  0  0  0  0  0
   -6.7366   12.3128   -6.9153 H   0  0  0  0  0  0  0  0  0  0  0  0
   -4.4364   14.4418   -7.1316 H   0  0  0  0  0  0  0  0  0  0  0  0
   -5.3317   13.8902   -5.6754 H   0  0  0  0  0  0  0  0  0  0  0  0
   -3.5409   13.7615   -5.7311 H   0  0  0  0  0  0  0  0  0  0  0  0
  1  2  1  0  0  0  0
  1  3  1  0  0  0  0
  1  4  1  0  0  0  0
  2  5  1  0  0  0  0
  3  6  1  0  0  0  0
  5  6  1  0  0  0  0
  6 12  1  0  0  0  0
  7  8  1  0  0  0  0
  7 10  1  0  0  0  0
  7 12  2  0  0  0  0
  8  9  2  0  0  0  0
  8 11  1  0  0  0  0
  9 15  1  0  0  0  0
 10 14  2  0  0  0  0
 12 13  1  0  0  0  0
 14 15  1  0  0  0  0
 14 18  1  0  0  0  0
 15 16  1  0  0  0  0
 16 17  2  0  0  0  0
 17 18  1  0  0  0  0
 18 19  2  0  0  0  0
 19 20  1  0  0  0  0
 20 21  2  0  0  0  0
 20 25  1  0  0  0  0
 21 24  1  0  0  0  0
 22 23  1  0  0  0  0
 22 24  2  0  0  0  0
 23 25  2  0  0  0  0
 23 26  1  0  0  0  0
  1 27  1  0  0  0  0
  2 28  1  0  0  0  0
  2 29  1  0  0  0  0
  3 30  1  0  0  0  0
  3 31  1  0  0  0  0
  4 32  1  0  0  0  0
  5 33  1  0  0  0  0
  5 34  1  0  0  0  0
  9 35  1  0  0  0  0
 10 36  1  0  0  0  0
 11 37  1  0  0  0  0
 13 38  1  0  0  0  0
 15 39  1  0  0  0  0
 19 40  1  0  0  0  0
 21 41  1  0  0  0  0
 22 42  1  0  0  0  0
 24 43  1  0  0  0  0
 25 44  1  0  0  0  0
 26 45  1  0  0  0  0
 26 46  1  0  0  0  0
 26 47  1  0  0  0  0
M  END
> <Name>
13

> <IC50[uM]>
0.006

$$$$
13
  -OEChem-05192314333D
 Structure written by MMmdl.
 47 50  0     1  0  0  0  0  0999 V2000
   -2.2088   12.9419  -10.9697 C   0  0  1  0  0  0  0  0  0  0  0  0
   -2.1904   14.4671  -10.9424 C   0  0  0  0  0  0  0  0  0  0  0  0
   -3.6992   12.5876  -10.8377 C   0  0  0  0  0  0  0  0  0  0  0  0
   -1.6826   12.4744  -12.1795 O   0  0  0  0  0  0  0  0  0  0  0  0
   -3.5107   14.9139  -11.6089 C   0  0  0  0  0  0  0  0  0  0  0  0
   -4.3443   13.7200  -11.5243 N   0  0  0  0  0  0  0  0  0  0  0  0
   -6.3525   12.3601  -12.0338 C   0  0  0  0  0  0  0  0  0  0  0  0
   -6.9727   11.7556  -13.1375 C   0  0  0  0  0  0  0  0  0  0  0  0
   -7.7097   10.5633  -13.0339 C   0  0  0  0  0  0  0  0  0  0  0  0
   -6.5001   11.8056  -10.7491 C   0  0  0  0  0  0  0  0  0  0  0  0
   -6.8506   12.3073  -14.3824 O   0  0  0  0  0  0  0  0  0  0  0  0
   -5.5377   13.6382  -12.2001 C   0  0  0  0  0  0  0  0  0  0  0  0
   -5.9500   14.5444  -12.9177 O   0  0  0  0  0  0  0  0  0  0  0  0
   -7.2308   10.6159  -10.6131 C   0  0  0  0  0  0  0  0  0  0  0  0
   -7.8083   10.0113  -11.7524 C   0  0  0  0  0  0  0  0  0  0  0  0
   -8.4200    8.8675  -11.2880 N   0  0  0  0  0  0  0  0  0  0  0  0
   -8.2847    8.7400   -9.9757 N   0  0  0  0  0  0  0  0  0  0  0  0
   -7.6047    9.7473   -9.5145 C   0  0  0  0  0  0  0  0  0  0  0  0
   -7.3264    9.8951   -8.0245 C   0  0  0  0  0  0  0  0  0  0  0  0
   -5.9604   10.4805   -7.7353 C   0  0  0  0  0  0  0  0  0  0  0  0
   -4.8075    9.7596   -8.0491 C   0  0  0  0  0  0  0  0  0  0  0  0
   -3.4358   11.5809   -7.2415 C   0  0  0  0  0  0  0  0  0  0  0  0
   -4.5835   12.3061   -6.9225 C   0  0  0  0  0  0  0  0  0  0  0  0
   -3.5481   10.3107   -7.8024 C   0  0  0  0  0  0  0  0  0  0  0  0
   -5.8471   11.7541   -7.1666 C   0  0  0  0  0  0  0  0  0  0  0  0
   -4.4650   13.6954   -6.3241 C   0  0  0  0  0  0  0  0  0  0  0  0
   -1.6558   12.5461  -10.1051 H   0  0  0  0  0  0  0  0  0  0  0  0
   -2.1418   14.8314   -9.9056 H   0  0  0  0  0  0  0  0  0  0  0  0
   -1.3273   14.8503  -11.5065 H   0  0  0  0  0  0  0  0  0  0  0  0
   -3.9292   11.6343  -11.3361 H   0  0  0  0  0  0  0  0  0  0  0  0
   -4.0052   12.5329   -9.7825 H   0  0  0  0  0  0  0  0  0  0  0  0
   -1.6986   11.5246  -12.1863 H   0  0  0  0  0  0  0  0  0  0  0  0
   -3.9654   15.7526  -11.0614 H   0  0  0  0  0  0  0  0  0  0  0  0
   -3.3451   15.2065  -12.6563 H   0  0  0  0  0  0  0  0  0  0  0  0
   -7.8845   12.3440  -12.9574 H   0  0  0  0  0  0  0  0  0  0  0  0
   -8.1726   10.1006  -13.8930 H   0  0  0  0  0  0  0  0  0  0  0  0
   -6.0607   12.2852   -9.8870 H   0  0  0  0  0  0  0  0  0  0  0  0
   -7.3269   11.7785  -15.0117 H   0  0  0  0  0  0  0  0  0  0  0  0
   -6.7868   14.2962  -13.2927 H   0  0  0  0  0  0  0  0  0  0  0  0
   -8.0295    9.6121   -7.2551 H   0  0  0  0  0  0  0  0  0  0  0  0
   -4.8892    8.7741   -8.4833 H   0  0  0  0  0  0  0  0  0  0  0  0
   -2.4600   12.0040   -7.0537 H   0  0  0  0  0  0  0  0  0  0  0  0
   -2.6581    9.7501   -8.0474 H   0  0  0  0  0  0  0  0  0  0  0  0
   -6.7366   12.3128   -6.9153 H   0  0  0  0  0  0  0  0  0  0  0  0
   -4.4364   14.4418   -7.1316 H   0  0  0  0  0  0  0  0  0  0  0  0
   -5.3317   13.8902   -5.6754 H   0  0  0  0  0  0  0  0  0  0  0  0
   -3.5409   13.7615   -5.7311 H   0  0  0  0  0  0  0  0  0  0  0  0
  1  2  1  0  0  0  0
  1  3  1  0  0  0  0
  1  4  1  0  0  0  0
  2  5  1  0  0  0  0
  3  6  1  0  0  0  0
  5  6  1  0  0  0  0
  6 12  1  0  0  0  0
  7  8  1  0  0  0  0
  7 10  1  0  0  0  0
  7 12  2  0  0  0  0
  8  9  1  0  0  0  0
  8 11  1  0  0  0  0
  9 15  2  0  0  0  0
 10 14  2  0  0  0  0
 12 13  1  0  0  0  0
 14 15  1  0  0  0  0
 14 18  1  0  0  0  0
 15 16  1  0  0  0  0
 16 17  2  0  0  0  0
 17 18  1  0  0  0  0
 18 19  2  0  0  0  0
 19 20  1  0  0  0  0
 20 21  2  0  0  0  0
 20 25  1  0  0  0  0
 21 24  1  0  0  0  0
 22 23  1  0  0  0  0
 22 24  2  0  0  0  0
 23 25  2  0  0  0  0
 23 26  1  0  0  0  0
  1 27  1  0  0  0  0
  2 28  1  0  0  0  0
  2 29  1  0  0  0  0
  3 30  1  0  0  0  0
  3 31  1  0  0  0  0
  4 32  1  0  0  0  0
  5 33  1  0  0  0  0
  5 34  1  0  0  0  0
  8 35  1  0  0  0  0
  9 36  1  0  0  0  0
 10 37  1  0  0  0  0
 11 38  1  0  0  0  0
 13 39  1  0  0  0  0
 19 40  1  0  0  0  0
 21 41  1  0  0  0  0
 22 42  1  0  0  0  0
 24 43  1  0  0  0  0
 25 44  1  0  0  0  0
 26 45  1  0  0  0  0
 26 46  1  0  0  0  0
 26 47  1  0  0  0  0
M  END
> <Name>
13

> <IC50[uM]>
0.006

$$$$
13
  -OEChem-05192314333D
 Structure written by MMmdl.
 47 50  0     1  0  0  0  0  0999 V2000
   -2.2088   12.9419  -10.9697 C   0  0  1  0  0  0  0  0  0  0  0  0
   -2.1904   14.4671  -10.9424 C   0  0  0  0  0  0  0  0  0  0  0  0
   -3.6992   12.5876  -10.8377 C   0  0  0  0  0  0  0  0  0  0  0  0
   -1.6826   12.4744  -12.1795 O   0  0  0  0  0  0  0  0  0  0  0  0
   -3.5107   14.9139  -11.6089 C   0  0  0  0  0  0  0  0  0  0  0  0
   -4.3443   13.7200  -11.5243 N   0  0  0  0  0  0  0  0  0  0  0  0
   -6.3525   12.3601  -12.0338 C   0  0  0  0  0  0  0  0  0  0  0  0
   -6.9727   11.7556  -13.1375 C   0  0  0  0  0  0  0  0  0  0  0  0
   -7.7097   10.5633  -13.0339 C   0  0  0  0  0  0  0  0  0  0  0  0
   -6.5001   11.8056  -10.7491 C   0  0  0  0  0  0  0  0  0  0  0  0
   -6.8506   12.3073  -14.3824 O   0  0  0  0  0  0  0  0  0  0  0  0
   -5.5377   13.6382  -12.2001 C   0  0  0  0  0  0  0  0  0  0  0  0
   -5.9500   14.5444  -12.9177 O   0  0  0  0  0  0  0  0  0  0  0  0
   -7.2308   10.6159  -10.6131 C   0  0  0  0  0  0  0  0  0  0  0  0
   -7.8083   10.0113  -11.7524 C   0  0  0  0  0  0  0  0  0  0  0  0
   -8.4200    8.8675  -11.2880 N   0  0  0  0  0  0  0  0  0  0  0  0
   -8.2847    8.7400   -9.9757 N   0  0  0  0  0  0  0  0  0  0  0  0
   -7.6047    9.7473   -9.5145 C   0  0  0  0  0  0  0  0  0  0  0  0
   -7.3264    9.8951   -8.0245 C   0  0  0  0  0  0  0  0  0  0  0  0
   -5.9604   10.4805   -7.7353 C   0  0  0  0  0  0  0  0  0  0  0  0
   -4.8075    9.7596   -8.0491 C   0  0  0  0  0  0  0  0  0  0  0  0
   -3.4358   11.5809   -7.2415 C   0  0  0  0  0  0  0  0  0  0  0  0
   -4.5835   12.3061   -6.9225 C   0  0  0  0  0  0  0  0  0  0  0  0
   -3.5481   10.3107   -7.8024 C   0  0  0  0  0  0  0  0  0  0  0  0
   -5.8471   11.7541   -7.1666 C   0  0  0  0  0  0  0  0  0  0  0  0
   -4.4650   13.6954   -6.3241 C   0  0  0  0  0  0  0  0  0  0  0  0
   -1.6558   12.5461  -10.1051 H   0  0  0  0  0  0  0  0  0  0  0  0
   -2.1418   14.8314   -9.9056 H   0  0  0  0  0  0  0  0  0  0  0  0
   -1.3273   14.8503  -11.5065 H   0  0  0  0  0  0  0  0  0  0  0  0
   -3.9292   11.6343  -11.3361 H   0  0  0  0  0  0  0  0  0  0  0  0
   -4.0052   12.5329   -9.7825 H   0  0  0  0  0  0  0  0  0  0  0  0
   -1.6986   11.5246  -12.1863 H   0  0  0  0  0  0  0  0  0  0  0  0
   -3.9654   15.7526  -11.0614 H   0  0  0  0  0  0  0  0  0  0  0  0
   -3.3451   15.2065  -12.6563 H   0  0  0  0  0  0  0  0  0  0  0  0
   -8.1726   10.1006  -13.8930 H   0  0  0  0  0  0  0  0  0  0  0  0
   -5.4892   11.6119  -10.3610 H   0  0  0  0  0  0  0  0  0  0  0  0
   -6.9942   12.5634  -10.1232 H   0  0  0  0  0  0  0  0  0  0  0  0
   -7.3269   11.7785  -15.0117 H   0  0  0  0  0  0  0  0  0  0  0  0
   -6.7868   14.2962  -13.2927 H   0  0  0  0  0  0  0  0  0  0  0  0
   -8.0295    9.6121   -7.2551 H   0  0  0  0  0  0  0  0  0  0  0  0
   -4.8892    8.7741   -8.4833 H   0  0  0  0  0  0  0  0  0  0  0  0
   -2.4600   12.0040   -7.0537 H   0  0  0  0  0  0  0  0  0  0  0  0
   -2.6581    9.7501   -8.0474 H   0  0  0  0  0  0  0  0  0  0  0  0
   -6.7366   12.3128   -6.9153 H   0  0  0  0  0  0  0  0  0  0  0  0
   -4.4364   14.4418   -7.1316 H   0  0  0  0  0  0  0  0  0  0  0  0
   -5.3317   13.8902   -5.6754 H   0  0  0  0  0  0  0  0  0  0  0  0
   -3.5409   13.7615   -5.7311 H   0  0  0  0  0  0  0  0  0  0  0  0
  1  2  1  0  0  0  0
  1  3  1  0  0  0  0
  1  4  1  0  0  0  0
  2  5  1  0  0  0  0
  3  6  1  0  0  0  0
  5  6  1  0  0  0  0
  6 12  1  0  0  0  0
  7  8  1  0  0  0  0
  7 10  1  0  0  0  0
  7 12  2  0  0  0  0
  8  9  2  0  0  0  0
  8 11  1  0  0  0  0
  9 15  1  0  0  0  0
 10 14  1  0  0  0  0
 12 13  1  0  0  0  0
 14 15  2  0  0  0  0
 14 18  1  0  0  0  0
 15 16  1  0  0  0  0
 16 17  2  0  0  0  0
 17 18  1  0  0  0  0
 18 19  2  0  0  0  0
 19 20  1  0  0  0  0
 20 21  2  0  0  0  0
 20 25  1  0  0  0  0
 21 24  1  0  0  0  0
 22 23  1  0  0  0  0
 22 24  2  0  0  0  0
 23 25  2  0  0  0  0
 23 26  1  0  0  0  0
  1 27  1  0  0  0  0
  2 28  1  0  0  0  0
  2 29  1  0  0  0  0
  3 30  1  0  0  0  0
  3 31  1  0  0  0  0
  4 32  1  0  0  0  0
  5 33  1  0  0  0  0
  5 34  1  0  0  0  0
  9 35  1  0  0  0  0
 10 36  1  0  0  0  0
 10 37  1  0  0  0  0
 11 38  1  0  0  0  0
 13 39  1  0  0  0  0
 19 40  1  0  0  0  0
 21 41  1  0  0  0  0
 22 42  1  0  0  0  0
 24 43  1  0  0  0  0
 25 44  1  0  0  0  0
 26 45  1  0  0  0  0
 26 46  1  0  0  0  0
 26 47  1  0  0  0  0
M  END
> <Name>
13

> <IC50[uM]>
0.006

$$$$
13
  -OEChem-05192314333D
 Structure written by MMmdl.
 47 50  0     1  0  0  0  0  0999 V2000
   -2.2088   12.9419  -10.9697 C   0  0  1  0  0  0  0  0  0  0  0  0
   -2.1904   14.4671  -10.9424 C   0  0  0  0  0  0  0  0  0  0  0  0
   -3.6992   12.5876  -10.8377 C   0  0  0  0  0  0  0  0  0  0  0  0
   -1.6826   12.4744  -12.1795 O   0  0  0  0  0  0  0  0  0  0  0  0
   -3.5107   14.9139  -11.6089 C   0  0  0  0  0  0  0  0  0  0  0  0
   -4.3443   13.7200  -11.5243 N   0  0  0  0  0  0  0  0  0  0  0  0
   -6.3525   12.3601  -12.0338 C   0  0  0  0  0  0  0  0  0  0  0  0
   -6.9727   11.7556  -13.1375 C   0  0  0  0  0  0  0  0  0  0  0  0
   -7.7097   10.5633  -13.0339 C   0  0  0  0  0  0  0  0  0  0  0  0
   -6.5001   11.8056  -10.7491 C   0  0  0  0  0  0  0  0  0  0  0  0
   -6.8506   12.3073  -14.3824 O   0  0  0  0  0  0  0  0  0  0  0  0
   -5.5377   13.6382  -12.2001 C   0  0  0  0  0  0  0  0  0  0  0  0
   -5.9500   14.5444  -12.9177 O   0  0  0  0  0  0  0  0  0  0  0  0
   -7.2308   10.6159  -10.6131 C   0  0  0  0  0  0  0  0  0  0  0  0
   -7.8083   10.0113  -11.7524 C   0  0  0  0  0  0  0  0  0  0  0  0
   -8.4200    8.8675  -11.2880 N   0  0  0  0  0  0  0  0  0  0  0  0
   -8.2847    8.7400   -9.9757 N   0  0  0  0  0  0  0  0  0  0  0  0
   -7.6047    9.7473   -9.5145 C   0  0  0  0  0  0  0  0  0  0  0  0
   -7.3264    9.8951   -8.0245 C   0  0  0  0  0  0  0  0  0  0  0  0
   -5.9604   10.4805   -7.7353 C   0  0  0  0  0  0  0  0  0  0  0  0
   -4.8075    9.7596   -8.0491 C   0  0  0  0  0  0  0  0  0  0  0  0
   -3.4358   11.5809   -7.2415 C   0  0  0  0  0  0  0  0  0  0  0  0
   -4.5835   12.3061   -6.9225 C   0  0  0  0  0  0  0  0  0  0  0  0
   -3.5481   10.3107   -7.8024 C   0  0  0  0  0  0  0  0  0  0  0  0
   -5.8471   11.7541   -7.1666 C   0  0  0  0  0  0  0  0  0  0  0  0
   -4.4650   13.6954   -6.3241 C   0  0  0  0  0  0  0  0  0  0  0  0
   -1.6558   12.5461  -10.1051 H   0  0  0  0  0  0  0  0  0  0  0  0
   -2.1418   14.8314   -9.9056 H   0  0  0  0  0  0  0  0  0  0  0  0
   -1.3273   14.8503  -11.5065 H   0  0  0  0  0  0  0  0  0  0  0  0
   -3.9292   11.6343  -11.3361 H   0  0  0  0  0  0  0  0  0  0  0  0
   -4.0052   12.5329   -9.7825 H   0  0  0  0  0  0  0  0  0  0  0  0
   -1.6986   11.5246  -12.1863 H   0  0  0  0  0  0  0  0  0  0  0  0
   -3.9654   15.7526  -11.0614 H   0  0  0  0  0  0  0  0  0  0  0  0
   -3.3451   15.2065  -12.6563 H   0  0  0  0  0  0  0  0  0  0  0  0
   -8.1726   10.1006  -13.8930 H   0  0  0  0  0  0  0  0  0  0  0  0
   -6.0607   12.2852   -9.8870 H   0  0  0  0  0  0  0  0  0  0  0  0
   -7.3269   11.7785  -15.0117 H   0  0  0  0  0  0  0  0  0  0  0  0
   -6.7868   14.2962  -13.2927 H   0  0  0  0  0  0  0  0  0  0  0  0
   -8.0295    9.6121   -7.2551 H   0  0  0  0  0  0  0  0  0  0  0  0
   -4.8582    8.8181   -7.4825 H   0  0  0  0  0  0  0  0  0  0  0  0
   -4.8529    9.5421   -9.1264 H   0  0  0  0  0  0  0  0  0  0  0  0
   -2.4600   12.0040   -7.0537 H   0  0  0  0  0  0  0  0  0  0  0  0
   -2.6581    9.7501   -8.0474 H   0  0  0  0  0  0  0  0  0  0  0  0
   -6.7366   12.3128   -6.9153 H   0  0  0  0  0  0  0  0  0  0  0  0
   -5.4700   14.1039   -6.1424 H   0  0  0  0  0  0  0  0  0  0  0  0
   -3.9148   13.6392   -5.3732 H   0  0  0  0  0  0  0  0  0  0  0  0
   -3.9239   14.3505   -7.0227 H   0  0  0  0  0  0  0  0  0  0  0  0
  1  2  1  0  0  0  0
  1  3  1  0  0  0  0
  1  4  1  0  0  0  0
  2  5  1  0  0  0  0
  3  6  1  0  0  0  0
  5  6  1  0  0  0  0
  6 12  1  0  0  0  0
  7  8  1  0  0  0  0
  7 10  1  0  0  0  0
  7 12  2  0  0  0  0
  8  9  2  0  0  0  0
  8 11  1  0  0  0  0
  9 15  1  0  0  0  0
 10 14  2  0  0  0  0
 12 13  1  0  0  0  0
 14 15  1  0  0  0  0
 14 18  1  0  0  0  0
 15 16  2  0  0  0  0
 16 17  1  0  0  0  0
 17 18  2  0  0  0  0
 18 19  1  0  0  0  0
 19 20  2  0  0  0  0
 20 21  1  0  0  0  0
 20 25  1  0  0  0  0
 21 24  1  0  0  0  0
 22 23  1  0  0  0  0
 22 24  2  0  0  0  0
 23 25  2  0  0  0  0
 23 26  1  0  0  0  0
  1 27  1  0  0  0  0
  2 28  1  0  0  0  0
  2 29  1  0  0  0  0
  3 30  1  0  0  0  0
  3 31  1  0  0  0  0
  4 32  1  0  0  0  0
  5 33  1  0  0  0  0
  5 34  1  0  0  0  0
  9 35  1  0  0  0  0
 10 36  1  0  0  0  0
 11 37  1  0  0  0  0
 13 38  1  0  0  0  0
 19 39  1  0  0  0  0
 21 40  1  0  0  0  0
 21 41  1  0  0  0  0
 22 42  1  0  0  0  0
 24 43  1  0  0  0  0
 25 44  1  0  0  0  0
 26 45  1  0  0  0  0
 26 46  1  0  0  0  0
 26 47  1  0  0  0  0
M  END
> <Name>
13

> <IC50[uM]>
0.006

$$$$
13
  -OEChem-05192314333D
 Structure written by MMmdl.
 47 50  0     1  0  0  0  0  0999 V2000
   -2.2088   12.9419  -10.9697 C   0  0  1  0  0  0  0  0  0  0  0  0
   -2.1904   14.4671  -10.9424 C   0  0  0  0  0  0  0  0  0  0  0  0
   -3.6992   12.5876  -10.8377 C   0  0  0  0  0  0  0  0  0  0  0  0
   -1.6826   12.4744  -12.1795 O   0  0  0  0  0  0  0  0  0  0  0  0
   -3.5107   14.9139  -11.6089 C   0  0  0  0  0  0  0  0  0  0  0  0
   -4.3443   13.7200  -11.5243 N   0  0  0  0  0  0  0  0  0  0  0  0
   -6.3525   12.3601  -12.0338 C   0  0  0  0  0  0  0  0  0  0  0  0
   -6.9727   11.7556  -13.1375 C   0  0  0  0  0  0  0  0  0  0  0  0
   -7.7097   10.5633  -13.0339 C   0  0  0  0  0  0  0  0  0  0  0  0
   -6.5001   11.8056  -10.7491 C   0  0  0  0  0  0  0  0  0  0  0  0
   -6.8506   12.3073  -14.3824 O   0  0  0  0  0  0  0  0  0  0  0  0
   -5.5377   13.6382  -12.2001 C   0  0  0  0  0  0  0  0  0  0  0  0
   -5.9500   14.5444  -12.9177 O   0  0  0  0  0  0  0  0  0  0  0  0
   -7.2308   10.6159  -10.6131 C   0  0  0  0  0  0  0  0  0  0  0  0
   -7.8083   10.0113  -11.7524 C   0  0  0  0  0  0  0  0  0  0  0  0
   -8.4200    8.8675  -11.2880 N   0  0  0  0  0  0  0  0  0  0  0  0
   -8.2847    8.7400   -9.9757 N   0  0  0  0  0  0  0  0  0  0  0  0
   -7.6047    9.7473   -9.5145 C   0  0  0  0  0  0  0  0  0  0  0  0
   -7.3264    9.8951   -8.0245 C   0  0  0  0  0  0  0  0  0  0  0  0
   -5.9604   10.4805   -7.7353 C   0  0  0  0  0  0  0  0  0  0  0  0
   -4.8075    9.7596   -8.0491 C   0  0  0  0  0  0  0  0  0  0  0  0
   -3.4358   11.5809   -7.2415 C   0  0  0  0  0  0  0  0  0  0  0  0
   -4.5835   12.3061   -6.9225 C   0  0  0  0  0  0  0  0  0  0  0  0
   -3.5481   10.3107   -7.8024 C   0  0  0  0  0  0  0  0  0  0  0  0
   -5.8471   11.7541   -7.1666 C   0  0  0  0  0  0  0  0  0  0  0  0
   -4.4650   13.6954   -6.3241 C   0  0  0  0  0  0  0  0  0  0  0  0
   -1.6558   12.5461  -10.1051 H   0  0  0  0  0  0  0  0  0  0  0  0
   -2.1418   14.8314   -9.9056 H   0  0  0  0  0  0  0  0  0  0  0  0
   -1.3273   14.8503  -11.5065 H   0  0  0  0  0  0  0  0  0  0  0  0
   -3.9292   11.6343  -11.3361 H   0  0  0  0  0  0  0  0  0  0  0  0
   -4.0052   12.5329   -9.7825 H   0  0  0  0  0  0  0  0  0  0  0  0
   -1.6986   11.5246  -12.1863 H   0  0  0  0  0  0  0  0  0  0  0  0
   -3.9654   15.7526  -11.0614 H   0  0  0  0  0  0  0  0  0  0  0  0
   -3.3451   15.2065  -12.6563 H   0  0  0  0  0  0  0  0  0  0  0  0
   -8.1726   10.1006  -13.8930 H   0  0  0  0  0  0  0  0  0  0  0  0
   -6.0607   12.2852   -9.8870 H   0  0  0  0  0  0  0  0  0  0  0  0
   -7.3269   11.7785  -15.0117 H   0  0  0  0  0  0  0  0  0  0  0  0
   -6.7868   14.2962  -13.2927 H   0  0  0  0  0  0  0  0  0  0  0  0
   -8.0295    9.6121   -7.2551 H   0  0  0  0  0  0  0  0  0  0  0  0
   -4.8892    8.7741   -8.4833 H   0  0  0  0  0  0  0  0  0  0  0  0
   -2.8612   12.1924   -7.9527 H   0  0  0  0  0  0  0  0  0  0  0  0
   -2.8628   11.4670   -6.3094 H   0  0  0  0  0  0  0  0  0  0  0  0
   -2.6581    9.7501   -8.0474 H   0  0  0  0  0  0  0  0  0  0  0  0
   -6.7366   12.3128   -6.9153 H   0  0  0  0  0  0  0  0  0  0  0  0
   -5.4700   14.1039   -6.1424 H   0  0  0  0  0  0  0  0  0  0  0  0
   -3.9148   13.6392   -5.3732 H   0  0  0  0  0  0  0  0  0  0  0  0
   -3.9239   14.3505   -7.0227 H   0  0  0  0  0  0  0  0  0  0  0  0
  1  2  1  0  0  0  0
  1  3  1  0  0  0  0
  1  4  1  0  0  0  0
  2  5  1  0  0  0  0
  3  6  1  0  0  0  0
  5  6  1  0  0  0  0
  6 12  1  0  0  0  0
  7  8  1  0  0  0  0
  7 10  1  0  0  0  0
  7 12  2  0  0  0  0
  8  9  2  0  0  0  0
  8 11  1  0  0  0  0
  9 15  1  0  0  0  0
 10 14  2  0  0  0  0
 12 13  1  0  0  0  0
 14 15  1  0  0  0  0
 14 18  1  0  0  0  0
 15 16  2  0  0  0  0
 16 17  1  0  0  0  0
 17 18  2  0  0  0  0
 18 19  1  0  0  0  0
 19 20  2  0  0  0  0
 20 21  1  0  0  0  0
 20 25  1  0  0  0  0
 21 24  2  0  0  0  0
 22 23  1  0  0  0  0
 22 24  1  0  0  0  0
 23 25  2  0  0  0  0
 23 26  1  0  0  0  0
  1 27  1  0  0  0  0
  2 28  1  0  0  0  0
  2 29  1  0  0  0  0
  3 30  1  0  0  0  0
  3 31  1  0  0  0  0
  4 32  1  0  0  0  0
  5 33  1  0  0  0  0
  5 34  1  0  0  0  0
  9 35  1  0  0  0  0
 10 36  1  0  0  0  0
 11 37  1  0  0  0  0
 13 38  1  0  0  0  0
 19 39  1  0  0  0  0
 21 40  1  0  0  0  0
 22 41  1  0  0  0  0
 22 42  1  0  0  0  0
 24 43  1  0  0  0  0
 25 44  1  0  0  0  0
 26 45  1  0  0  0  0
 26 46  1  0  0  0  0
 26 47  1  0  0  0  0
M  END
> <Name>
13

> <IC50[uM]>
0.006

$$$$
13
  -OEChem-05192314333D
 Structure written by MMmdl.
 47 50  0     1  0  0  0  0  0999 V2000
   -2.2088   12.9419  -10.9697 C   0  0  1  0  0  0  0  0  0  0  0  0
   -2.1904   14.4671  -10.9424 C   0  0  0  0  0  0  0  0  0  0  0  0
   -3.6992   12.5876  -10.8377 C   0  0  0  0  0  0  0  0  0  0  0  0
   -1.6826   12.4744  -12.1795 O   0  0  0  0  0  0  0  0  0  0  0  0
   -3.5107   14.9139  -11.6089 C   0  0  0  0  0  0  0  0  0  0  0  0
   -4.3443   13.7200  -11.5243 N   0  0  0  0  0  0  0  0  0  0  0  0
   -6.3525   12.3601  -12.0338 C   0  0  0  0  0  0  0  0  0  0  0  0
   -6.9727   11.7556  -13.1375 C   0  0  0  0  0  0  0  0  0  0  0  0
   -7.7097   10.5633  -13.0339 C   0  0  0  0  0  0  0  0  0  0  0  0
   -6.5001   11.8056  -10.7491 C   0  0  0  0  0  0  0  0  0  0  0  0
   -6.8506   12.3073  -14.3824 O   0  0  0  0  0  0  0  0  0  0  0  0
   -5.5377   13.6382  -12.2001 C   0  0  0  0  0  0  0  0  0  0  0  0
   -5.9500   14.5444  -12.9177 O   0  0  0  0  0  0  0  0  0  0  0  0
   -7.2308   10.6159  -10.6131 C   0  0  0  0  0  0  0  0  0  0  0  0
   -7.8083   10.0113  -11.7524 C   0  0  0  0  0  0  0  0  0  0  0  0
   -8.4200    8.8675  -11.2880 N   0  0  0  0  0  0  0  0  0  0  0  0
   -8.2847    8.7400   -9.9757 N   0  0  0  0  0  0  0  0  0  0  0  0
   -7.6047    9.7473   -9.5145 C   0  0  0  0  0  0  0  0  0  0  0  0
   -7.3264    9.8951   -8.0245 C   0  0  0  0  0  0  0  0  0  0  0  0
   -5.9604   10.4805   -7.7353 C   0  0  0  0  0  0  0  0  0  0  0  0
   -4.8075    9.7596   -8.0491 C   0  0  0  0  0  0  0  0  0  0  0  0
   -3.4358   11.5809   -7.2415 C   0  0  0  0  0  0  0  0  0  0  0  0
   -4.5835   12.3061   -6.9225 C   0  0  0  0  0  0  0  0  0  0  0  0
   -3.5481   10.3107   -7.8024 C   0  0  0  0  0  0  0  0  0  0  0  0
   -5.8471   11.7541   -7.1666 C   0  0  0  0  0  0  0  0  0  0  0  0
   -4.4650   13.6954   -6.3241 C   0  0  0  0  0  0  0  0  0  0  0  0
   -1.6558   12.5461  -10.1051 H   0  0  0  0  0  0  0  0  0  0  0  0
   -2.1418   14.8314   -9.9056 H   0  0  0  0  0  0  0  0  0  0  0  0
   -1.3273   14.8503  -11.5065 H   0  0  0  0  0  0  0  0  0  0  0  0
   -3.9292   11.6343  -11.3361 H   0  0  0  0  0  0  0  0  0  0  0  0
   -4.0052   12.5329   -9.7825 H   0  0  0  0  0  0  0  0  0  0  0  0
   -1.6986   11.5246  -12.1863 H   0  0  0  0  0  0  0  0  0  0  0  0
   -3.9654   15.7526  -11.0614 H   0  0  0  0  0  0  0  0  0  0  0  0
   -3.3451   15.2065  -12.6563 H   0  0  0  0  0  0  0  0  0  0  0  0
   -8.1726   10.1006  -13.8930 H   0  0  0  0  0  0  0  0  0  0  0  0
   -6.0607   12.2852   -9.8870 H   0  0  0  0  0  0  0  0  0  0  0  0
   -7.3269   11.7785  -15.0117 H   0  0  0  0  0  0  0  0  0  0  0  0
   -6.7868   14.2962  -13.2927 H   0  0  0  0  0  0  0  0  0  0  0  0
   -8.0295    9.6121   -7.2551 H   0  0  0  0  0  0  0  0  0  0  0  0
   -4.8892    8.7741   -8.4833 H   0  0  0  0  0  0  0  0  0  0  0  0
   -2.4600   12.0040   -7.0537 H   0  0  0  0  0  0  0  0  0  0  0  0
   -2.6581    9.7501   -8.0474 H   0  0  0  0  0  0  0  0  0  0  0  0
   -6.3717   12.4489   -7.8389 H   0  0  0  0  0  0  0  0  0  0  0  0
   -6.3685   11.7163   -6.1988 H   0  0  0  0  0  0  0  0  0  0  0  0
   -5.4700   14.1039   -6.1424 H   0  0  0  0  0  0  0  0  0  0  0  0
   -3.9148   13.6392   -5.3732 H   0  0  0  0  0  0  0  0  0  0  0  0
   -3.9239   14.3505   -7.0227 H   0  0  0  0  0  0  0  0  0  0  0  0
  1  2  1  0  0  0  0
  1  3  1  0  0  0  0
  1  4  1  0  0  0  0
  2  5  1  0  0  0  0
  3  6  1  0  0  0  0
  5  6  1  0  0  0  0
  6 12  1  0  0  0  0
  7  8  1  0  0  0  0
  7 10  1  0  0  0  0
  7 12  2  0  0  0  0
  8  9  2  0  0  0  0
  8 11  1  0  0  0  0
  9 15  1  0  0  0  0
 10 14  2  0  0  0  0
 12 13  1  0  0  0  0
 14 15  1  0  0  0  0
 14 18  1  0  0  0  0
 15 16  2  0  0  0  0
 16 17  1  0  0  0  0
 17 18  2  0  0  0  0
 18 19  1  0  0  0  0
 19 20  2  0  0  0  0
 20 21  1  0  0  0  0
 20 25  1  0  0  0  0
 21 24  2  0  0  0  0
 22 23  2  0  0  0  0
 22 24  1  0  0  0  0
 23 25  1  0  0  0  0
 23 26  1  0  0  0  0
  1 27  1  0  0  0  0
  2 28  1  0  0  0  0
  2 29  1  0  0  0  0
  3 30  1  0  0  0  0
  3 31  1  0  0  0  0
  4 32  1  0  0  0  0
  5 33  1  0  0  0  0
  5 34  1  0  0  0  0
  9 35  1  0  0  0  0
 10 36  1  0  0  0  0
 11 37  1  0  0  0  0
 13 38  1  0  0  0  0
 19 39  1  0  0  0  0
 21 40  1  0  0  0  0
 22 41  1  0  0  0  0
 24 42  1  0  0  0  0
 25 43  1  0  0  0  0
 25 44  1  0  0  0  0
 26 45  1  0  0  0  0
 26 46  1  0  0  0  0
 26 47  1  0  0  0  0
M  END
> <Name>
13

> <IC50[uM]>
0.006

$$$$
13
  -OEChem-05192314333D
 Structure written by MMmdl.
 47 50  0     1  0  0  0  0  0999 V2000
   -2.2088   12.9419  -10.9697 C   0  0  1  0  0  0  0  0  0  0  0  0
   -2.1904   14.4671  -10.9424 C   0  0  0  0  0  0  0  0  0  0  0  0
   -3.6992   12.5876  -10.8377 C   0  0  0  0  0  0  0  0  0  0  0  0
   -1.6826   12.4744  -12.1795 O   0  0  0  0  0  0  0  0  0  0  0  0
   -3.5107   14.9139  -11.6089 C   0  0  0  0  0  0  0  0  0  0  0  0
   -4.3443   13.7200  -11.5243 N   0  0  0  0  0  0  0  0  0  0  0  0
   -6.3525   12.3601  -12.0338 C   0  0  0  0  0  0  0  0  0  0  0  0
   -6.9727   11.7556  -13.1375 C   0  0  0  0  0  0  0  0  0  0  0  0
   -7.7097   10.5633  -13.0339 C   0  0  0  0  0  0  0  0  0  0  0  0
   -6.5001   11.8056  -10.7491 C   0  0  0  0  0  0  0  0  0  0  0  0
   -6.8506   12.3073  -14.3824 O   0  0  0  0  0  0  0  0  0  0  0  0
   -5.5377   13.6382  -12.2001 C   0  0  0  0  0  0  0  0  0  0  0  0
   -5.9500   14.5444  -12.9177 O   0  0  0  0  0  0  0  0  0  0  0  0
   -7.2308   10.6159  -10.6131 C   0  0  0  0  0  0  0  0  0  0  0  0
   -7.8083   10.0113  -11.7524 C   0  0  0  0  0  0  0  0  0  0  0  0
   -8.4200    8.8675  -11.2880 N   0  0  0  0  0  0  0  0  0  0  0  0
   -8.2847    8.7400   -9.9757 N   0  0  0  0  0  0  0  0  0  0  0  0
   -7.6047    9.7473   -9.5145 C   0  0  0  0  0  0  0  0  0  0  0  0
   -7.3264    9.8951   -8.0245 C   0  0  0  0  0  0  0  0  0  0  0  0
   -5.9604   10.4805   -7.7353 C   0  0  0  0  0  0  0  0  0  0  0  0
   -4.8075    9.7596   -8.0491 C   0  0  0  0  0  0  0  0  0  0  0  0
   -3.4358   11.5809   -7.2415 C   0  0  0  0  0  0  0  0  0  0  0  0
   -4.5835   12.3061   -6.9225 C   0  0  0  0  0  0  0  0  0  0  0  0
   -3.5481   10.3107   -7.8024 C   0  0  0  0  0  0  0  0  0  0  0  0
   -5.8471   11.7541   -7.1666 C   0  0  0  0  0  0  0  0  0  0  0  0
   -4.4650   13.6954   -6.3241 C   0  0  0  0  0  0  0  0  0  0  0  0
   -1.6558   12.5461  -10.1051 H   0  0  0  0  0  0  0  0  0  0  0  0
   -2.1418   14.8314   -9.9056 H   0  0  0  0  0  0  0  0  0  0  0  0
   -1.3273   14.8503  -11.5065 H   0  0  0  0  0  0  0  0  0  0  0  0
   -3.9292   11.6343  -11.3361 H   0  0  0  0  0  0  0  0  0  0  0  0
   -4.0052   12.5329   -9.7825 H   0  0  0  0  0  0  0  0  0  0  0  0
   -1.6986   11.5246  -12.1863 H   0  0  0  0  0  0  0  0  0  0  0  0
   -3.9654   15.7526  -11.0614 H   0  0  0  0  0  0  0  0  0  0  0  0
   -3.3451   15.2065  -12.6563 H   0  0  0  0  0  0  0  0  0  0  0  0
   -8.1726   10.1006  -13.8930 H   0  0  0  0  0  0  0  0  0  0  0  0
   -6.0607   12.2852   -9.8870 H   0  0  0  0  0  0  0  0  0  0  0  0
   -6.4002   14.1748  -13.6682 H   0  0  0  0  0  0  0  0  0  0  0  0
   -8.9058    8.2145  -11.8690 H   0  0  0  0  0  0  0  0  0  0  0  0
   -8.0295    9.6121   -7.2551 H   0  0  0  0  0  0  0  0  0  0  0  0
   -4.8582    8.8181   -7.4825 H   0  0  0  0  0  0  0  0  0  0  0  0
   -4.8529    9.5421   -9.1264 H   0  0  0  0  0  0  0  0  0  0  0  0
   -2.4600   12.0040   -7.0537 H   0  0  0  0  0  0  0  0  0  0  0  0
   -2.6581    9.7501   -8.0474 H   0  0  0  0  0  0  0  0  0  0  0  0
   -6.7366   12.3128   -6.9153 H   0  0  0  0  0  0  0  0  0  0  0  0
   -5.4700   14.1039   -6.1424 H   0  0  0  0  0  0  0  0  0  0  0  0
   -3.9148   13.6392   -5.3732 H   0  0  0  0  0  0  0  0  0  0  0  0
   -3.9239   14.3505   -7.0227 H   0  0  0  0  0  0  0  0  0  0  0  0
  1  2  1  0  0  0  0
  1  3  1  0  0  0  0
  1  4  1  0  0  0  0
  2  5  1  0  0  0  0
  3  6  1  0  0  0  0
  5  6  1  0  0  0  0
  6 12  1  0  0  0  0
  7  8  1  0  0  0  0
  7 10  1  0  0  0  0
  7 12  2  0  0  0  0
  8  9  1  0  0  0  0
  8 11  2  0  0  0  0
  9 15  2  0  0  0  0
 10 14  2  0  0  0  0
 12 13  1  0  0  0  0
 14 15  1  0  0  0  0
 14 18  1  0  0  0  0
 15 16  1  0  0  0  0
 16 17  1  0  0  0  0
 17 18  2  0  0  0  0
 18 19  1  0  0  0  0
 19 20  2  0  0  0  0
 20 21  1  0  0  0  0
 20 25  1  0  0  0  0
 21 24  1  0  0  0  0
 22 23  1  0  0  0  0
 22 24  2  0  0  0  0
 23 25  2  0  0  0  0
 23 26  1  0  0  0  0
  1 27  1  0  0  0  0
  2 28  1  0  0  0  0
  2 29  1  0  0  0  0
  3 30  1  0  0  0  0
  3 31  1  0  0  0  0
  4 32  1  0  0  0  0
  5 33  1  0  0  0  0
  5 34  1  0  0  0  0
  9 35  1  0  0  0  0
 10 36  1  0  0  0  0
 13 37  1  0  0  0  0
 16 38  1  0  0  0  0
 19 39  1  0  0  0  0
 21 40  1  0  0  0  0
 21 41  1  0  0  0  0
 22 42  1  0  0  0  0
 24 43  1  0  0  0  0
 25 44  1  0  0  0  0
 26 45  1  0  0  0  0
 26 46  1  0  0  0  0
 26 47  1  0  0  0  0
M  END
> <Name>
13

> <IC50[uM]>
0.006

$$$$
13
  -OEChem-05192314333D
 Structure written by MMmdl.
 47 50  0     1  0  0  0  0  0999 V2000
   -2.2088   12.9419  -10.9697 C   0  0  1  0  0  0  0  0  0  0  0  0
   -2.1904   14.4671  -10.9424 C   0  0  0  0  0  0  0  0  0  0  0  0
   -3.6992   12.5876  -10.8377 C   0  0  0  0  0  0  0  0  0  0  0  0
   -1.6826   12.4744  -12.1795 O   0  0  0  0  0  0  0  0  0  0  0  0
   -3.5107   14.9139  -11.6089 C   0  0  0  0  0  0  0  0  0  0  0  0
   -4.3443   13.7200  -11.5243 N   0  0  0  0  0  0  0  0  0  0  0  0
   -6.3525   12.3601  -12.0338 C   0  0  0  0  0  0  0  0  0  0  0  0
   -6.9727   11.7556  -13.1375 C   0  0  0  0  0  0  0  0  0  0  0  0
   -7.7097   10.5633  -13.0339 C   0  0  0  0  0  0  0  0  0  0  0  0
   -6.5001   11.8056  -10.7491 C   0  0  0  0  0  0  0  0  0  0  0  0
   -6.8506   12.3073  -14.3824 O   0  0  0  0  0  0  0  0  0  0  0  0
   -5.5377   13.6382  -12.2001 C   0  0  0  0  0  0  0  0  0  0  0  0
   -5.9500   14.5444  -12.9177 O   0  0  0  0  0  0  0  0  0  0  0  0
   -7.2308   10.6159  -10.6131 C   0  0  0  0  0  0  0  0  0  0  0  0
   -7.8083   10.0113  -11.7524 C   0  0  0  0  0  0  0  0  0  0  0  0
   -8.4200    8.8675  -11.2880 N   0  0  0  0  0  0  0  0  0  0  0  0
   -8.2847    8.7400   -9.9757 N   0  0  0  0  0  0  0  0  0  0  0  0
   -7.6047    9.7473   -9.5145 C   0  0  0  0  0  0  0  0  0  0  0  0
   -7.3264    9.8951   -8.0245 C   0  0  0  0  0  0  0  0  0  0  0  0
   -5.9604   10.4805   -7.7353 C   0  0  0  0  0  0  0  0  0  0  0  0
   -4.8075    9.7596   -8.0491 C   0  0  0  0  0  0  0  0  0  0  0  0
   -3.4358   11.5809   -7.2415 C   0  0  0  0  0  0  0  0  0  0  0  0
   -4.5835   12.3061   -6.9225 C   0  0  0  0  0  0  0  0  0  0  0  0
   -3.5481   10.3107   -7.8024 C   0  0  0  0  0  0  0  0  0  0  0  0
   -5.8471   11.7541   -7.1666 C   0  0  0  0  0  0  0  0  0  0  0  0
   -4.4650   13.6954   -6.3241 C   0  0  0  0  0  0  0  0  0  0  0  0
   -1.6558   12.5461  -10.1051 H   0  0  0  0  0  0  0  0  0  0  0  0
   -2.1418   14.8314   -9.9056 H   0  0  0  0  0  0  0  0  0  0  0  0
   -1.3273   14.8503  -11.5065 H   0  0  0  0  0  0  0  0  0  0  0  0
   -3.9292   11.6343  -11.3361 H   0  0  0  0  0  0  0  0  0  0  0  0
   -4.0052   12.5329   -9.7825 H   0  0  0  0  0  0  0  0  0  0  0  0
   -1.6986   11.5246  -12.1863 H   0  0  0  0  0  0  0  0  0  0  0  0
   -3.9654   15.7526  -11.0614 H   0  0  0  0  0  0  0  0  0  0  0  0
   -3.3451   15.2065  -12.6563 H   0  0  0  0  0  0  0  0  0  0  0  0
   -8.1726   10.1006  -13.8930 H   0  0  0  0  0  0  0  0  0  0  0  0
   -6.0607   12.2852   -9.8870 H   0  0  0  0  0  0  0  0  0  0  0  0
   -6.4002   14.1748  -13.6682 H   0  0  0  0  0  0  0  0  0  0  0  0
   -8.9058    8.2145  -11.8690 H   0  0  0  0  0  0  0  0  0  0  0  0
   -8.0295    9.6121   -7.2551 H   0  0  0  0  0  0  0  0  0  0  0  0
   -4.8892    8.7741   -8.4833 H   0  0  0  0  0  0  0  0  0  0  0  0
   -2.8612   12.1924   -7.9527 H   0  0  0  0  0  0  0  0  0  0  0  0
   -2.8628   11.4670   -6.3094 H   0  0  0  0  0  0  0  0  0  0  0  0
   -2.6581    9.7501   -8.0474 H   0  0  0  0  0  0  0  0  0  0  0  0
   -6.7366   12.3128   -6.9153 H   0  0  0  0  0  0  0  0  0  0  0  0
   -5.4700   14.1039   -6.1424 H   0  0  0  0  0  0  0  0  0  0  0  0
   -3.9148   13.6392   -5.3732 H   0  0  0  0  0  0  0  0  0  0  0  0
   -3.9239   14.3505   -7.0227 H   0  0  0  0  0  0  0  0  0  0  0  0
  1  2  1  0  0  0  0
  1  3  1  0  0  0  0
  1  4  1  0  0  0  0
  2  5  1  0  0  0  0
  3  6  1  0  0  0  0
  5  6  1  0  0  0  0
  6 12  1  0  0  0  0
  7  8  1  0  0  0  0
  7 10  1  0  0  0  0
  7 12  2  0  0  0  0
  8  9  1  0  0  0  0
  8 11  2  0  0  0  0
  9 15  2  0  0  0  0
 10 14  2  0  0  0  0
 12 13  1  0  0  0  0
 14 15  1  0  0  0  0
 14 18  1  0  0  0  0
 15 16  1  0  0  0  0
 16 17  1  0  0  0  0
 17 18  2  0  0  0  0
 18 19  1  0  0  0  0
 19 20  2  0  0  0  0
 20 21  1  0  0  0  0
 20 25  1  0  0  0  0
 21 24  2  0  0  0  0
 22 23  1  0  0  0  0
 22 24  1  0  0  0  0
 23 25  2  0  0  0  0
 23 26  1  0  0  0  0
  1 27  1  0  0  0  0
  2 28  1  0  0  0  0
  2 29  1  0  0  0  0
  3 30  1  0  0  0  0
  3 31  1  0  0  0  0
  4 32  1  0  0  0  0
  5 33  1  0  0  0  0
  5 34  1  0  0  0  0
  9 35  1  0  0  0  0
 10 36  1  0  0  0  0
 13 37  1  0  0  0  0
 16 38  1  0  0  0  0
 19 39  1  0  0  0  0
 21 40  1  0  0  0  0
 22 41  1  0  0  0  0
 22 42  1  0  0  0  0
 24 43  1  0  0  0  0
 25 44  1  0  0  0  0
 26 45  1  0  0  0  0
 26 46  1  0  0  0  0
 26 47  1  0  0  0  0
M  END
> <Name>
13

> <IC50[uM]>
0.006

$$$$
13
  -OEChem-05192314333D
 Structure written by MMmdl.
 47 50  0     1  0  0  0  0  0999 V2000
   -2.2088   12.9419  -10.9697 C   0  0  1  0  0  0  0  0  0  0  0  0
   -2.1904   14.4671  -10.9424 C   0  0  0  0  0  0  0  0  0  0  0  0
   -3.6992   12.5876  -10.8377 C   0  0  0  0  0  0  0  0  0  0  0  0
   -1.6826   12.4744  -12.1795 O   0  0  0  0  0  0  0  0  0  0  0  0
   -3.5107   14.9139  -11.6089 C   0  0  0  0  0  0  0  0  0  0  0  0
   -4.3443   13.7200  -11.5243 N   0  0  0  0  0  0  0  0  0  0  0  0
   -6.3525   12.3601  -12.0338 C   0  0  0  0  0  0  0  0  0  0  0  0
   -6.9727   11.7556  -13.1375 C   0  0  0  0  0  0  0  0  0  0  0  0
   -7.7097   10.5633  -13.0339 C   0  0  0  0  0  0  0  0  0  0  0  0
   -6.5001   11.8056  -10.7491 C   0  0  0  0  0  0  0  0  0  0  0  0
   -6.8506   12.3073  -14.3824 O   0  0  0  0  0  0  0  0  0  0  0  0
   -5.5377   13.6382  -12.2001 C   0  0  0  0  0  0  0  0  0  0  0  0
   -5.9500   14.5444  -12.9177 O   0  0  0  0  0  0  0  0  0  0  0  0
   -7.2308   10.6159  -10.6131 C   0  0  0  0  0  0  0  0  0  0  0  0
   -7.8083   10.0113  -11.7524 C   0  0  0  0  0  0  0  0  0  0  0  0
   -8.4200    8.8675  -11.2880 N   0  0  0  0  0  0  0  0  0  0  0  0
   -8.2847    8.7400   -9.9757 N   0  0  0  0  0  0  0  0  0  0  0  0
   -7.6047    9.7473   -9.5145 C   0  0  0  0  0  0  0  0  0  0  0  0
   -7.3264    9.8951   -8.0245 C   0  0  0  0  0  0  0  0  0  0  0  0
   -5.9604   10.4805   -7.7353 C   0  0  0  0  0  0  0  0  0  0  0  0
   -4.8075    9.7596   -8.0491 C   0  0  0  0  0  0  0  0  0  0  0  0
   -3.4358   11.5809   -7.2415 C   0  0  0  0  0  0  0  0  0  0  0  0
   -4.5835   12.3061   -6.9225 C   0  0  0  0  0  0  0  0  0  0  0  0
   -3.5481   10.3107   -7.8024 C   0  0  0  0  0  0  0  0  0  0  0  0
   -5.8471   11.7541   -7.1666 C   0  0  0  0  0  0  0  0  0  0  0  0
   -4.4650   13.6954   -6.3241 C   0  0  0  0  0  0  0  0  0  0  0  0
   -1.6558   12.5461  -10.1051 H   0  0  0  0  0  0  0  0  0  0  0  0
   -2.1418   14.8314   -9.9056 H   0  0  0  0  0  0  0  0  0  0  0  0
   -1.3273   14.8503  -11.5065 H   0  0  0  0  0  0  0  0  0  0  0  0
   -3.9292   11.6343  -11.3361 H   0  0  0  0  0  0  0  0  0  0  0  0
   -4.0052   12.5329   -9.7825 H   0  0  0  0  0  0  0  0  0  0  0  0
   -1.6986   11.5246  -12.1863 H   0  0  0  0  0  0  0  0  0  0  0  0
   -3.9654   15.7526  -11.0614 H   0  0  0  0  0  0  0  0  0  0  0  0
   -3.3451   15.2065  -12.6563 H   0  0  0  0  0  0  0  0  0  0  0  0
   -8.1726   10.1006  -13.8930 H   0  0  0  0  0  0  0  0  0  0  0  0
   -6.0607   12.2852   -9.8870 H   0  0  0  0  0  0  0  0  0  0  0  0
   -6.4002   14.1748  -13.6682 H   0  0  0  0  0  0  0  0  0  0  0  0
   -8.9058    8.2145  -11.8690 H   0  0  0  0  0  0  0  0  0  0  0  0
   -8.0295    9.6121   -7.2551 H   0  0  0  0  0  0  0  0  0  0  0  0
   -4.8892    8.7741   -8.4833 H   0  0  0  0  0  0  0  0  0  0  0  0
   -2.4600   12.0040   -7.0537 H   0  0  0  0  0  0  0  0  0  0  0  0
   -2.6581    9.7501   -8.0474 H   0  0  0  0  0  0  0  0  0  0  0  0
   -6.3717   12.4489   -7.8389 H   0  0  0  0  0  0  0  0  0  0  0  0
   -6.3685   11.7163   -6.1988 H   0  0  0  0  0  0  0  0  0  0  0  0
   -5.4700   14.1039   -6.1424 H   0  0  0  0  0  0  0  0  0  0  0  0
   -3.9148   13.6392   -5.3732 H   0  0  0  0  0  0  0  0  0  0  0  0
   -3.9239   14.3505   -7.0227 H   0  0  0  0  0  0  0  0  0  0  0  0
  1  2  1  0  0  0  0
  1  3  1  0  0  0  0
  1  4  1  0  0  0  0
  2  5  1  0  0  0  0
  3  6  1  0  0  0  0
  5  6  1  0  0  0  0
  6 12  1  0  0  0  0
  7  8  1  0  0  0  0
  7 10  1  0  0  0  0
  7 12  2  0  0  0  0
  8  9  1  0  0  0  0
  8 11  2  0  0  0  0
  9 15  2  0  0  0  0
 10 14  2  0  0  0  0
 12 13  1  0  0  0  0
 14 15  1  0  0  0  0
 14 18  1  0  0  0  0
 15 16  1  0  0  0  0
 16 17  1  0  0  0  0
 17 18  2  0  0  0  0
 18 19  1  0  0  0  0
 19 20  2  0  0  0  0
 20 21  1  0  0  0  0
 20 25  1  0  0  0  0
 21 24  2  0  0  0  0
 22 23  2  0  0  0  0
 22 24  1  0  0  0  0
 23 25  1  0  0  0  0
 23 26  1  0  0  0  0
  1 27  1  0  0  0  0
  2 28  1  0  0  0  0
  2 29  1  0  0  0  0
  3 30  1  0  0  0  0
  3 31  1  0  0  0  0
  4 32  1  0  0  0  0
  5 33  1  0  0  0  0
  5 34  1  0  0  0  0
  9 35  1  0  0  0  0
 10 36  1  0  0  0  0
 13 37  1  0  0  0  0
 16 38  1  0  0  0  0
 19 39  1  0  0  0  0
 21 40  1  0  0  0  0
 22 41  1  0  0  0  0
 24 42  1  0  0  0  0
 25 43  1  0  0  0  0
 25 44  1  0  0  0  0
 26 45  1  0  0  0  0
 26 46  1  0  0  0  0
 26 47  1  0  0  0  0
M  END
> <Name>
13

> <IC50[uM]>
0.006

$$$$
13
  -OEChem-05192314333D
 Structure written by MMmdl.
 47 50  0     1  0  0  0  0  0999 V2000
   -2.2088   12.9419  -10.9697 C   0  0  1  0  0  0  0  0  0  0  0  0
   -2.1904   14.4671  -10.9424 C   0  0  0  0  0  0  0  0  0  0  0  0
   -3.6992   12.5876  -10.8377 C   0  0  0  0  0  0  0  0  0  0  0  0
   -1.6826   12.4744  -12.1795 O   0  0  0  0  0  0  0  0  0  0  0  0
   -3.5107   14.9139  -11.6089 C   0  0  0  0  0  0  0  0  0  0  0  0
   -4.3443   13.7200  -11.5243 N   0  0  0  0  0  0  0  0  0  0  0  0
   -6.3525   12.3601  -12.0338 C   0  0  0  0  0  0  0  0  0  0  0  0
   -6.9727   11.7556  -13.1375 C   0  0  0  0  0  0  0  0  0  0  0  0
   -7.7097   10.5633  -13.0339 C   0  0  0  0  0  0  0  0  0  0  0  0
   -6.5001   11.8056  -10.7491 C   0  0  0  0  0  0  0  0  0  0  0  0
   -6.8506   12.3073  -14.3824 O   0  0  0  0  0  0  0  0  0  0  0  0
   -5.5377   13.6382  -12.2001 C   0  0  0  0  0  0  0  0  0  0  0  0
   -5.9500   14.5444  -12.9177 O   0  0  0  0  0  0  0  0  0  0  0  0
   -7.2308   10.6159  -10.6131 C   0  0  0  0  0  0  0  0  0  0  0  0
   -7.8083   10.0113  -11.7524 C   0  0  0  0  0  0  0  0  0  0  0  0
   -8.4200    8.8675  -11.2880 N   0  0  0  0  0  0  0  0  0  0  0  0
   -8.2847    8.7400   -9.9757 N   0  0  0  0  0  0  0  0  0  0  0  0
   -7.6047    9.7473   -9.5145 C   0  0  0  0  0  0  0  0  0  0  0  0
   -7.3264    9.8951   -8.0245 C   0  0  0  0  0  0  0  0  0  0  0  0
   -5.9604   10.4805   -7.7353 C   0  0  0  0  0  0  0  0  0  0  0  0
   -4.8075    9.7596   -8.0491 C   0  0  0  0  0  0  0  0  0  0  0  0
   -3.4358   11.5809   -7.2415 C   0  0  0  0  0  0  0  0  0  0  0  0
   -4.5835   12.3061   -6.9225 C   0  0  0  0  0  0  0  0  0  0  0  0
   -3.5481   10.3107   -7.8024 C   0  0  0  0  0  0  0  0  0  0  0  0
   -5.8471   11.7541   -7.1666 C   0  0  0  0  0  0  0  0  0  0  0  0
   -4.4650   13.6954   -6.3241 C   0  0  0  0  0  0  0  0  0  0  0  0
   -1.6558   12.5461  -10.1051 H   0  0  0  0  0  0  0  0  0  0  0  0
   -2.1418   14.8314   -9.9056 H   0  0  0  0  0  0  0  0  0  0  0  0
   -1.3273   14.8503  -11.5065 H   0  0  0  0  0  0  0  0  0  0  0  0
   -3.9292   11.6343  -11.3361 H   0  0  0  0  0  0  0  0  0  0  0  0
   -4.0052   12.5329   -9.7825 H   0  0  0  0  0  0  0  0  0  0  0  0
   -1.6986   11.5246  -12.1863 H   0  0  0  0  0  0  0  0  0  0  0  0
   -3.9654   15.7526  -11.0614 H   0  0  0  0  0  0  0  0  0  0  0  0
   -3.3451   15.2065  -12.6563 H   0  0  0  0  0  0  0  0  0  0  0  0
   -8.7298   10.7663  -13.3920 H   0  0  0  0  0  0  0  0  0  0  0  0
   -7.2340    9.8162  -13.6862 H   0  0  0  0  0  0  0  0  0  0  0  0
   -6.0607   12.2852   -9.8870 H   0  0  0  0  0  0  0  0  0  0  0  0
   -6.4002   14.1748  -13.6682 H   0  0  0  0  0  0  0  0  0  0  0  0
   -8.0295    9.6121   -7.2551 H   0  0  0  0  0  0  0  0  0  0  0  0
   -4.8582    8.8181   -7.4825 H   0  0  0  0  0  0  0  0  0  0  0  0
   -4.8529    9.5421   -9.1264 H   0  0  0  0  0  0  0  0  0  0  0  0
   -2.4600   12.0040   -7.0537 H   0  0  0  0  0  0  0  0  0  0  0  0
   -2.6581    9.7501   -8.0474 H   0  0  0  0  0  0  0  0  0  0  0  0
   -6.7366   12.3128   -6.9153 H   0  0  0  0  0  0  0  0  0  0  0  0
   -5.4700   14.1039   -6.1424 H   0  0  0  0  0  0  0  0  0  0  0  0
   -3.9148   13.6392   -5.3732 H   0  0  0  0  0  0  0  0  0  0  0  0
   -3.9239   14.3505   -7.0227 H   0  0  0  0  0  0  0  0  0  0  0  0
  1  2  1  0  0  0  0
  1  3  1  0  0  0  0
  1  4  1  0  0  0  0
  2  5  1  0  0  0  0
  3  6  1  0  0  0  0
  5  6  1  0  0  0  0
  6 12  1  0  0  0  0
  7  8  1  0  0  0  0
  7 10  1  0  0  0  0
  7 12  2  0  0  0  0
  8  9  1  0  0  0  0
  8 11  2  0  0  0  0
  9 15  1  0  0  0  0
 10 14  2  0  0  0  0
 12 13  1  0  0  0  0
 14 15  1  0  0  0  0
 14 18  1  0  0  0  0
 15 16  2  0  0  0  0
 16 17  1  0  0  0  0
 17 18  2  0  0  0  0
 18 19  1  0  0  0  0
 19 20  2  0  0  0  0
 20 21  1  0  0  0  0
 20 25  1  0  0  0  0
 21 24  1  0  0  0  0
 22 23  1  0  0  0  0
 22 24  2  0  0  0  0
 23 25  2  0  0  0  0
 23 26  1  0  0  0  0
  1 27  1  0  0  0  0
  2 28  1  0  0  0  0
  2 29  1  0  0  0  0
  3 30  1  0  0  0  0
  3 31  1  0  0  0  0
  4 32  1  0  0  0  0
  5 33  1  0  0  0  0
  5 34  1  0  0  0  0
  9 35  1  0  0  0  0
  9 36  1  0  0  0  0
 10 37  1  0  0  0  0
 13 38  1  0  0  0  0
 19 39  1  0  0  0  0
 21 40  1  0  0  0  0
 21 41  1  0  0  0  0
 22 42  1  0  0  0  0
 24 43  1  0  0  0  0
 25 44  1  0  0  0  0
 26 45  1  0  0  0  0
 26 46  1  0  0  0  0
 26 47  1  0  0  0  0
M  END
> <Name>
13

> <IC50[uM]>
0.006

$$$$
13
  -OEChem-05192314333D
 Structure written by MMmdl.
 47 50  0     1  0  0  0  0  0999 V2000
   -2.2088   12.9419  -10.9697 C   0  0  1  0  0  0  0  0  0  0  0  0
   -2.1904   14.4671  -10.9424 C   0  0  0  0  0  0  0  0  0  0  0  0
   -3.6992   12.5876  -10.8377 C   0  0  0  0  0  0  0  0  0  0  0  0
   -1.6826   12.4744  -12.1795 O   0  0  0  0  0  0  0  0  0  0  0  0
   -3.5107   14.9139  -11.6089 C   0  0  0  0  0  0  0  0  0  0  0  0
   -4.3443   13.7200  -11.5243 N   0  0  0  0  0  0  0  0  0  0  0  0
   -6.3525   12.3601  -12.0338 C   0  0  0  0  0  0  0  0  0  0  0  0
   -6.9727   11.7556  -13.1375 C   0  0  0  0  0  0  0  0  0  0  0  0
   -7.7097   10.5633  -13.0339 C   0  0  0  0  0  0  0  0  0  0  0  0
   -6.5001   11.8056  -10.7491 C   0  0  0  0  0  0  0  0  0  0  0  0
   -6.8506   12.3073  -14.3824 O   0  0  0  0  0  0  0  0  0  0  0  0
   -5.5377   13.6382  -12.2001 C   0  0  0  0  0  0  0  0  0  0  0  0
   -5.9500   14.5444  -12.9177 O   0  0  0  0  0  0  0  0  0  0  0  0
   -7.2308   10.6159  -10.6131 C   0  0  0  0  0  0  0  0  0  0  0  0
   -7.8083   10.0113  -11.7524 C   0  0  0  0  0  0  0  0  0  0  0  0
   -8.4200    8.8675  -11.2880 N   0  0  0  0  0  0  0  0  0  0  0  0
   -8.2847    8.7400   -9.9757 N   0  0  0  0  0  0  0  0  0  0  0  0
   -7.6047    9.7473   -9.5145 C   0  0  0  0  0  0  0  0  0  0  0  0
   -7.3264    9.8951   -8.0245 C   0  0  0  0  0  0  0  0  0  0  0  0
   -5.9604   10.4805   -7.7353 C   0  0  0  0  0  0  0  0  0  0  0  0
   -4.8075    9.7596   -8.0491 C   0  0  0  0  0  0  0  0  0  0  0  0
   -3.4358   11.5809   -7.2415 C   0  0  0  0  0  0  0  0  0  0  0  0
   -4.5835   12.3061   -6.9225 C   0  0  0  0  0  0  0  0  0  0  0  0
   -3.5481   10.3107   -7.8024 C   0  0  0  0  0  0  0  0  0  0  0  0
   -5.8471   11.7541   -7.1666 C   0  0  0  0  0  0  0  0  0  0  0  0
   -4.4650   13.6954   -6.3241 C   0  0  0  0  0  0  0  0  0  0  0  0
   -1.6558   12.5461  -10.1051 H   0  0  0  0  0  0  0  0  0  0  0  0
   -2.1418   14.8314   -9.9056 H   0  0  0  0  0  0  0  0  0  0  0  0
   -1.3273   14.8503  -11.5065 H   0  0  0  0  0  0  0  0  0  0  0  0
   -3.9292   11.6343  -11.3361 H   0  0  0  0  0  0  0  0  0  0  0  0
   -4.0052   12.5329   -9.7825 H   0  0  0  0  0  0  0  0  0  0  0  0
   -1.6986   11.5246  -12.1863 H   0  0  0  0  0  0  0  0  0  0  0  0
   -3.9654   15.7526  -11.0614 H   0  0  0  0  0  0  0  0  0  0  0  0
   -3.3451   15.2065  -12.6563 H   0  0  0  0  0  0  0  0  0  0  0  0
   -8.7298   10.7663  -13.3920 H   0  0  0  0  0  0  0  0  0  0  0  0
   -7.2340    9.8162  -13.6862 H   0  0  0  0  0  0  0  0  0  0  0  0
   -6.0607   12.2852   -9.8870 H   0  0  0  0  0  0  0  0  0  0  0  0
   -6.4002   14.1748  -13.6682 H   0  0  0  0  0  0  0  0  0  0  0  0
   -8.0295    9.6121   -7.2551 H   0  0  0  0  0  0  0  0  0  0  0  0
   -4.8892    8.7741   -8.4833 H   0  0  0  0  0  0  0  0  0  0  0  0
   -2.8612   12.1924   -7.9527 H   0  0  0  0  0  0  0  0  0  0  0  0
   -2.8628   11.4670   -6.3094 H   0  0  0  0  0  0  0  0  0  0  0  0
   -2.6581    9.7501   -8.0474 H   0  0  0  0  0  0  0  0  0  0  0  0
   -6.7366   12.3128   -6.9153 H   0  0  0  0  0  0  0  0  0  0  0  0
   -5.4700   14.1039   -6.1424 H   0  0  0  0  0  0  0  0  0  0  0  0
   -3.9148   13.6392   -5.3732 H   0  0  0  0  0  0  0  0  0  0  0  0
   -3.9239   14.3505   -7.0227 H   0  0  0  0  0  0  0  0  0  0  0  0
  1  2  1  0  0  0  0
  1  3  1  0  0  0  0
  1  4  1  0  0  0  0
  2  5  1  0  0  0  0
  3  6  1  0  0  0  0
  5  6  1  0  0  0  0
  6 12  1  0  0  0  0
  7  8  1  0  0  0  0
  7 10  1  0  0  0  0
  7 12  2  0  0  0  0
  8  9  1  0  0  0  0
  8 11  2  0  0  0  0
  9 15  1  0  0  0  0
 10 14  2  0  0  0  0
 12 13  1  0  0  0  0
 14 15  1  0  0  0  0
 14 18  1  0  0  0  0
 15 16  2  0  0  0  0
 16 17  1  0  0  0  0
 17 18  2  0  0  0  0
 18 19  1  0  0  0  0
 19 20  2  0  0  0  0
 20 21  1  0  0  0  0
 20 25  1  0  0  0  0
 21 24  2  0  0  0  0
 22 23  1  0  0  0  0
 22 24  1  0  0  0  0
 23 25  2  0  0  0  0
 23 26  1  0  0  0  0
  1 27  1  0  0  0  0
  2 28  1  0  0  0  0
  2 29  1  0  0  0  0
  3 30  1  0  0  0  0
  3 31  1  0  0  0  0
  4 32  1  0  0  0  0
  5 33  1  0  0  0  0
  5 34  1  0  0  0  0
  9 35  1  0  0  0  0
  9 36  1  0  0  0  0
 10 37  1  0  0  0  0
 13 38  1  0  0  0  0
 19 39  1  0  0  0  0
 21 40  1  0  0  0  0
 22 41  1  0  0  0  0
 22 42  1  0  0  0  0
 24 43  1  0  0  0  0
 25 44  1  0  0  0  0
 26 45  1  0  0  0  0
 26 46  1  0  0  0  0
 26 47  1  0  0  0  0
M  END
> <Name>
13

> <IC50[uM]>
0.006

$$$$
13
  -OEChem-05192314333D
 Structure written by MMmdl.
 47 50  0     1  0  0  0  0  0999 V2000
   -2.2088   12.9419  -10.9697 C   0  0  1  0  0  0  0  0  0  0  0  0
   -2.1904   14.4671  -10.9424 C   0  0  0  0  0  0  0  0  0  0  0  0
   -3.6992   12.5876  -10.8377 C   0  0  0  0  0  0  0  0  0  0  0  0
   -1.6826   12.4744  -12.1795 O   0  0  0  0  0  0  0  0  0  0  0  0
   -3.5107   14.9139  -11.6089 C   0  0  0  0  0  0  0  0  0  0  0  0
   -4.3443   13.7200  -11.5243 N   0  0  0  0  0  0  0  0  0  0  0  0
   -6.3525   12.3601  -12.0338 C   0  0  0  0  0  0  0  0  0  0  0  0
   -6.9727   11.7556  -13.1375 C   0  0  0  0  0  0  0  0  0  0  0  0
   -7.7097   10.5633  -13.0339 C   0  0  0  0  0  0  0  0  0  0  0  0
   -6.5001   11.8056  -10.7491 C   0  0  0  0  0  0  0  0  0  0  0  0
   -6.8506   12.3073  -14.3824 O   0  0  0  0  0  0  0  0  0  0  0  0
   -5.5377   13.6382  -12.2001 C   0  0  0  0  0  0  0  0  0  0  0  0
   -5.9500   14.5444  -12.9177 O   0  0  0  0  0  0  0  0  0  0  0  0
   -7.2308   10.6159  -10.6131 C   0  0  0  0  0  0  0  0  0  0  0  0
   -7.8083   10.0113  -11.7524 C   0  0  0  0  0  0  0  0  0  0  0  0
   -8.4200    8.8675  -11.2880 N   0  0  0  0  0  0  0  0  0  0  0  0
   -8.2847    8.7400   -9.9757 N   0  0  0  0  0  0  0  0  0  0  0  0
   -7.6047    9.7473   -9.5145 C   0  0  0  0  0  0  0  0  0  0  0  0
   -7.3264    9.8951   -8.0245 C   0  0  0  0  0  0  0  0  0  0  0  0
   -5.9604   10.4805   -7.7353 C   0  0  0  0  0  0  0  0  0  0  0  0
   -4.8075    9.7596   -8.0491 C   0  0  0  0  0  0  0  0  0  0  0  0
   -3.4358   11.5809   -7.2415 C   0  0  0  0  0  0  0  0  0  0  0  0
   -4.5835   12.3061   -6.9225 C   0  0  0  0  0  0  0  0  0  0  0  0
   -3.5481   10.3107   -7.8024 C   0  0  0  0  0  0  0  0  0  0  0  0
   -5.8471   11.7541   -7.1666 C   0  0  0  0  0  0  0  0  0  0  0  0
   -4.4650   13.6954   -6.3241 C   0  0  0  0  0  0  0  0  0  0  0  0
   -1.6558   12.5461  -10.1051 H   0  0  0  0  0  0  0  0  0  0  0  0
   -2.1418   14.8314   -9.9056 H   0  0  0  0  0  0  0  0  0  0  0  0
   -1.3273   14.8503  -11.5065 H   0  0  0  0  0  0  0  0  0  0  0  0
   -3.9292   11.6343  -11.3361 H   0  0  0  0  0  0  0  0  0  0  0  0
   -4.0052   12.5329   -9.7825 H   0  0  0  0  0  0  0  0  0  0  0  0
   -1.6986   11.5246  -12.1863 H   0  0  0  0  0  0  0  0  0  0  0  0
   -3.9654   15.7526  -11.0614 H   0  0  0  0  0  0  0  0  0  0  0  0
   -3.3451   15.2065  -12.6563 H   0  0  0  0  0  0  0  0  0  0  0  0
   -8.7298   10.7663  -13.3920 H   0  0  0  0  0  0  0  0  0  0  0  0
   -7.2340    9.8162  -13.6862 H   0  0  0  0  0  0  0  0  0  0  0  0
   -6.0607   12.2852   -9.8870 H   0  0  0  0  0  0  0  0  0  0  0  0
   -6.4002   14.1748  -13.6682 H   0  0  0  0  0  0  0  0  0  0  0  0
   -8.0295    9.6121   -7.2551 H   0  0  0  0  0  0  0  0  0  0  0  0
   -4.8892    8.7741   -8.4833 H   0  0  0  0  0  0  0  0  0  0  0  0
   -2.4600   12.0040   -7.0537 H   0  0  0  0  0  0  0  0  0  0  0  0
   -2.6581    9.7501   -8.0474 H   0  0  0  0  0  0  0  0  0  0  0  0
   -6.3717   12.4489   -7.8389 H   0  0  0  0  0  0  0  0  0  0  0  0
   -6.3685   11.7163   -6.1988 H   0  0  0  0  0  0  0  0  0  0  0  0
   -5.4700   14.1039   -6.1424 H   0  0  0  0  0  0  0  0  0  0  0  0
   -3.9148   13.6392   -5.3732 H   0  0  0  0  0  0  0  0  0  0  0  0
   -3.9239   14.3505   -7.0227 H   0  0  0  0  0  0  0  0  0  0  0  0
  1  2  1  0  0  0  0
  1  3  1  0  0  0  0
  1  4  1  0  0  0  0
  2  5  1  0  0  0  0
  3  6  1  0  0  0  0
  5  6  1  0  0  0  0
  6 12  1  0  0  0  0
  7  8  1  0  0  0  0
  7 10  1  0  0  0  0
  7 12  2  0  0  0  0
  8  9  1  0  0  0  0
  8 11  2  0  0  0  0
  9 15  1  0  0  0  0
 10 14  2  0  0  0  0
 12 13  1  0  0  0  0
 14 15  1  0  0  0  0
 14 18  1  0  0  0  0
 15 16  2  0  0  0  0
 16 17  1  0  0  0  0
 17 18  2  0  0  0  0
 18 19  1  0  0  0  0
 19 20  2  0  0  0  0
 20 21  1  0  0  0  0
 20 25  1  0  0  0  0
 21 24  2  0  0  0  0
 22 23  2  0  0  0  0
 22 24  1  0  0  0  0
 23 25  1  0  0  0  0
 23 26  1  0  0  0  0
  1 27  1  0  0  0  0
  2 28  1  0  0  0  0
  2 29  1  0  0  0  0
  3 30  1  0  0  0  0
  3 31  1  0  0  0  0
  4 32  1  0  0  0  0
  5 33  1  0  0  0  0
  5 34  1  0  0  0  0
  9 35  1  0  0  0  0
  9 36  1  0  0  0  0
 10 37  1  0  0  0  0
 13 38  1  0  0  0  0
 19 39  1  0  0  0  0
 21 40  1  0  0  0  0
 22 41  1  0  0  0  0
 24 42  1  0  0  0  0
 25 43  1  0  0  0  0
 25 44  1  0  0  0  0
 26 45  1  0  0  0  0
 26 46  1  0  0  0  0
 26 47  1  0  0  0  0
M  END
> <Name>
13

> <IC50[uM]>
0.006

$$$$
13
  -OEChem-05192314333D
 Structure written by MMmdl.
 47 50  0     1  0  0  0  0  0999 V2000
   -2.2088   12.9419  -10.9697 C   0  0  1  0  0  0  0  0  0  0  0  0
   -2.1904   14.4671  -10.9424 C   0  0  0  0  0  0  0  0  0  0  0  0
   -3.6992   12.5876  -10.8377 C   0  0  0  0  0  0  0  0  0  0  0  0
   -1.6826   12.4744  -12.1795 O   0  0  0  0  0  0  0  0  0  0  0  0
   -3.5107   14.9139  -11.6089 C   0  0  0  0  0  0  0  0  0  0  0  0
   -4.3443   13.7200  -11.5243 N   0  0  0  0  0  0  0  0  0  0  0  0
   -6.3525   12.3601  -12.0338 C   0  0  0  0  0  0  0  0  0  0  0  0
   -6.9727   11.7556  -13.1375 C   0  0  0  0  0  0  0  0  0  0  0  0
   -7.7097   10.5633  -13.0339 C   0  0  0  0  0  0  0  0  0  0  0  0
   -6.5001   11.8056  -10.7491 C   0  0  0  0  0  0  0  0  0  0  0  0
   -6.8506   12.3073  -14.3824 O   0  0  0  0  0  0  0  0  0  0  0  0
   -5.5377   13.6382  -12.2001 C   0  0  0  0  0  0  0  0  0  0  0  0
   -5.9500   14.5444  -12.9177 O   0  0  0  0  0  0  0  0  0  0  0  0
   -7.2308   10.6159  -10.6131 C   0  0  0  0  0  0  0  0  0  0  0  0
   -7.8083   10.0113  -11.7524 C   0  0  0  0  0  0  0  0  0  0  0  0
   -8.4200    8.8675  -11.2880 N   0  0  0  0  0  0  0  0  0  0  0  0
   -8.2847    8.7400   -9.9757 N   0  0  0  0  0  0  0  0  0  0  0  0
   -7.6047    9.7473   -9.5145 C   0  0  0  0  0  0  0  0  0  0  0  0
   -7.3264    9.8951   -8.0245 C   0  0  0  0  0  0  0  0  0  0  0  0
   -5.9604   10.4805   -7.7353 C   0  0  0  0  0  0  0  0  0  0  0  0
   -4.8075    9.7596   -8.0491 C   0  0  0  0  0  0  0  0  0  0  0  0
   -3.4358   11.5809   -7.2415 C   0  0  0  0  0  0  0  0  0  0  0  0
   -4.5835   12.3061   -6.9225 C   0  0  0  0  0  0  0  0  0  0  0  0
   -3.5481   10.3107   -7.8024 C   0  0  0  0  0  0  0  0  0  0  0  0
   -5.8471   11.7541   -7.1666 C   0  0  0  0  0  0  0  0  0  0  0  0
   -4.4650   13.6954   -6.3241 C   0  0  0  0  0  0  0  0  0  0  0  0
   -1.6558   12.5461  -10.1051 H   0  0  0  0  0  0  0  0  0  0  0  0
   -2.1418   14.8314   -9.9056 H   0  0  0  0  0  0  0  0  0  0  0  0
   -1.3273   14.8503  -11.5065 H   0  0  0  0  0  0  0  0  0  0  0  0
   -3.9292   11.6343  -11.3361 H   0  0  0  0  0  0  0  0  0  0  0  0
   -4.0052   12.5329   -9.7825 H   0  0  0  0  0  0  0  0  0  0  0  0
   -1.6986   11.5246  -12.1863 H   0  0  0  0  0  0  0  0  0  0  0  0
   -3.9654   15.7526  -11.0614 H   0  0  0  0  0  0  0  0  0  0  0  0
   -3.3451   15.2065  -12.6563 H   0  0  0  0  0  0  0  0  0  0  0  0
   -8.1726   10.1006  -13.8930 H   0  0  0  0  0  0  0  0  0  0  0  0
   -6.0607   12.2852   -9.8870 H   0  0  0  0  0  0  0  0  0  0  0  0
   -6.4002   14.1748  -13.6682 H   0  0  0  0  0  0  0  0  0  0  0  0
   -8.0295    9.6121   -7.2551 H   0  0  0  0  0  0  0  0  0  0  0  0
   -4.8582    8.8181   -7.4825 H   0  0  0  0  0  0  0  0  0  0  0  0
   -4.8529    9.5421   -9.1264 H   0  0  0  0  0  0  0  0  0  0  0  0
   -2.4600   12.0040   -7.0537 H   0  0  0  0  0  0  0  0  0  0  0  0
   -4.5836   11.8682   -5.9134 H   0  0  0  0  0  0  0  0  0  0  0  0
   -2.6581    9.7501   -8.0474 H   0  0  0  0  0  0  0  0  0  0  0  0
   -6.7366   12.3128   -6.9153 H   0  0  0  0  0  0  0  0  0  0  0  0
   -5.4700   14.1039   -6.1424 H   0  0  0  0  0  0  0  0  0  0  0  0
   -3.9148   13.6392   -5.3732 H   0  0  0  0  0  0  0  0  0  0  0  0
   -3.9239   14.3505   -7.0227 H   0  0  0  0  0  0  0  0  0  0  0  0
  1  2  1  0  0  0  0
  1  3  1  0  0  0  0
  1  4  1  0  0  0  0
  2  5  1  0  0  0  0
  3  6  1  0  0  0  0
  5  6  1  0  0  0  0
  6 12  1  0  0  0  0
  7  8  1  0  0  0  0
  7 10  1  0  0  0  0
  7 12  2  0  0  0  0
  8  9  1  0  0  0  0
  8 11  2  0  0  0  0
  9 15  2  0  0  0  0
 10 14  2  0  0  0  0
 12 13  1  0  0  0  0
 14 15  1  0  0  0  0
 14 18  1  0  0  0  0
 15 16  1  0  0  0  0
 16 17  2  0  0  0  0
 17 18  1  0  0  0  0
 18 19  2  0  0  0  0
 19 20  1  0  0  0  0
 20 21  1  0  0  0  0
 20 25  2  0  0  0  0
 21 24  1  0  0  0  0
 22 23  1  0  0  0  0
 22 24  2  0  0  0  0
 23 25  1  0  0  0  0
 23 26  1  0  0  0  0
  1 27  1  0  0  0  0
  2 28  1  0  0  0  0
  2 29  1  0  0  0  0
  3 30  1  0  0  0  0
  3 31  1  0  0  0  0
  4 32  1  0  0  0  0
  5 33  1  0  0  0  0
  5 34  1  0  0  0  0
  9 35  1  0  0  0  0
 10 36  1  0  0  0  0
 13 37  1  0  0  0  0
 19 38  1  0  0  0  0
 21 39  1  0  0  0  0
 21 40  1  0  0  0  0
 22 41  1  0  0  0  0
 23 42  1  0  0  0  0
 24 43  1  0  0  0  0
 25 44  1  0  0  0  0
 26 45  1  0  0  0  0
 26 46  1  0  0  0  0
 26 47  1  0  0  0  0
M  END
> <Name>
13

> <IC50[uM]>
0.006

$$$$
13
  -OEChem-05192314333D
 Structure written by MMmdl.
 47 50  0     1  0  0  0  0  0999 V2000
   -2.2088   12.9419  -10.9697 C   0  0  1  0  0  0  0  0  0  0  0  0
   -2.1904   14.4671  -10.9424 C   0  0  0  0  0  0  0  0  0  0  0  0
   -3.6992   12.5876  -10.8377 C   0  0  0  0  0  0  0  0  0  0  0  0
   -1.6826   12.4744  -12.1795 O   0  0  0  0  0  0  0  0  0  0  0  0
   -3.5107   14.9139  -11.6089 C   0  0  0  0  0  0  0  0  0  0  0  0
   -4.3443   13.7200  -11.5243 N   0  0  0  0  0  0  0  0  0  0  0  0
   -6.3525   12.3601  -12.0338 C   0  0  0  0  0  0  0  0  0  0  0  0
   -6.9727   11.7556  -13.1375 C   0  0  0  0  0  0  0  0  0  0  0  0
   -7.7097   10.5633  -13.0339 C   0  0  0  0  0  0  0  0  0  0  0  0
   -6.5001   11.8056  -10.7491 C   0  0  0  0  0  0  0  0  0  0  0  0
   -6.8506   12.3073  -14.3824 O   0  0  0  0  0  0  0  0  0  0  0  0
   -5.5377   13.6382  -12.2001 C   0  0  0  0  0  0  0  0  0  0  0  0
   -5.9500   14.5444  -12.9177 O   0  0  0  0  0  0  0  0  0  0  0  0
   -7.2308   10.6159  -10.6131 C   0  0  0  0  0  0  0  0  0  0  0  0
   -7.8083   10.0113  -11.7524 C   0  0  0  0  0  0  0  0  0  0  0  0
   -8.4200    8.8675  -11.2880 N   0  0  0  0  0  0  0  0  0  0  0  0
   -8.2847    8.7400   -9.9757 N   0  0  0  0  0  0  0  0  0  0  0  0
   -7.6047    9.7473   -9.5145 C   0  0  0  0  0  0  0  0  0  0  0  0
   -7.3264    9.8951   -8.0245 C   0  0  0  0  0  0  0  0  0  0  0  0
   -5.9604   10.4805   -7.7353 C   0  0  0  0  0  0  0  0  0  0  0  0
   -4.8075    9.7596   -8.0491 C   0  0  0  0  0  0  0  0  0  0  0  0
   -3.4358   11.5809   -7.2415 C   0  0  0  0  0  0  0  0  0  0  0  0
   -4.5835   12.3061   -6.9225 C   0  0  0  0  0  0  0  0  0  0  0  0
   -3.5481   10.3107   -7.8024 C   0  0  0  0  0  0  0  0  0  0  0  0
   -5.8471   11.7541   -7.1666 C   0  0  0  0  0  0  0  0  0  0  0  0
   -4.4650   13.6954   -6.3241 C   0  0  0  0  0  0  0  0  0  0  0  0
   -1.6558   12.5461  -10.1051 H   0  0  0  0  0  0  0  0  0  0  0  0
   -2.1418   14.8314   -9.9056 H   0  0  0  0  0  0  0  0  0  0  0  0
   -1.3273   14.8503  -11.5065 H   0  0  0  0  0  0  0  0  0  0  0  0
   -3.9292   11.6343  -11.3361 H   0  0  0  0  0  0  0  0  0  0  0  0
   -4.0052   12.5329   -9.7825 H   0  0  0  0  0  0  0  0  0  0  0  0
   -1.6986   11.5246  -12.1863 H   0  0  0  0  0  0  0  0  0  0  0  0
   -3.9654   15.7526  -11.0614 H   0  0  0  0  0  0  0  0  0  0  0  0
   -3.3451   15.2065  -12.6563 H   0  0  0  0  0  0  0  0  0  0  0  0
   -8.1726   10.1006  -13.8930 H   0  0  0  0  0  0  0  0  0  0  0  0
   -6.0607   12.2852   -9.8870 H   0  0  0  0  0  0  0  0  0  0  0  0
   -6.4002   14.1748  -13.6682 H   0  0  0  0  0  0  0  0  0  0  0  0
   -8.0295    9.6121   -7.2551 H   0  0  0  0  0  0  0  0  0  0  0  0
   -5.9749   10.0291   -6.7323 H   0  0  0  0  0  0  0  0  0  0  0  0
   -4.8582    8.8181   -7.4825 H   0  0  0  0  0  0  0  0  0  0  0  0
   -4.8529    9.5421   -9.1264 H   0  0  0  0  0  0  0  0  0  0  0  0
   -2.4600   12.0040   -7.0537 H   0  0  0  0  0  0  0  0  0  0  0  0
   -2.6581    9.7501   -8.0474 H   0  0  0  0  0  0  0  0  0  0  0  0
   -6.7366   12.3128   -6.9153 H   0  0  0  0  0  0  0  0  0  0  0  0
   -5.4700   14.1039   -6.1424 H   0  0  0  0  0  0  0  0  0  0  0  0
   -3.9148   13.6392   -5.3732 H   0  0  0  0  0  0  0  0  0  0  0  0
   -3.9239   14.3505   -7.0227 H   0  0  0  0  0  0  0  0  0  0  0  0
  1  2  1  0  0  0  0
  1  3  1  0  0  0  0
  1  4  1  0  0  0  0
  2  5  1  0  0  0  0
  3  6  1  0  0  0  0
  5  6  1  0  0  0  0
  6 12  1  0  0  0  0
  7  8  1  0  0  0  0
  7 10  1  0  0  0  0
  7 12  2  0  0  0  0
  8  9  1  0  0  0  0
  8 11  2  0  0  0  0
  9 15  2  0  0  0  0
 10 14  2  0  0  0  0
 12 13  1  0  0  0  0
 14 15  1  0  0  0  0
 14 18  1  0  0  0  0
 15 16  1  0  0  0  0
 16 17  2  0  0  0  0
 17 18  1  0  0  0  0
 18 19  2  0  0  0  0
 19 20  1  0  0  0  0
 20 21  1  0  0  0  0
 20 25  1  0  0  0  0
 21 24  1  0  0  0  0
 22 23  1  0  0  0  0
 22 24  2  0  0  0  0
 23 25  2  0  0  0  0
 23 26  1  0  0  0  0
  1 27  1  0  0  0  0
  2 28  1  0  0  0  0
  2 29  1  0  0  0  0
  3 30  1  0  0  0  0
  3 31  1  0  0  0  0
  4 32  1  0  0  0  0
  5 33  1  0  0  0  0
  5 34  1  0  0  0  0
  9 35  1  0  0  0  0
 10 36  1  0  0  0  0
 13 37  1  0  0  0  0
 19 38  1  0  0  0  0
 20 39  1  0  0  0  0
 21 40  1  0  0  0  0
 21 41  1  0  0  0  0
 22 42  1  0  0  0  0
 24 43  1  0  0  0  0
 25 44  1  0  0  0  0
 26 45  1  0  0  0  0
 26 46  1  0  0  0  0
 26 47  1  0  0  0  0
M  END
> <Name>
13

> <IC50[uM]>
0.006

$$$$
13
  -OEChem-05192314333D
 Structure written by MMmdl.
 47 50  0     1  0  0  0  0  0999 V2000
   -2.2088   12.9419  -10.9697 C   0  0  1  0  0  0  0  0  0  0  0  0
   -2.1904   14.4671  -10.9424 C   0  0  0  0  0  0  0  0  0  0  0  0
   -3.6992   12.5876  -10.8377 C   0  0  0  0  0  0  0  0  0  0  0  0
   -1.6826   12.4744  -12.1795 O   0  0  0  0  0  0  0  0  0  0  0  0
   -3.5107   14.9139  -11.6089 C   0  0  0  0  0  0  0  0  0  0  0  0
   -4.3443   13.7200  -11.5243 N   0  0  0  0  0  0  0  0  0  0  0  0
   -6.3525   12.3601  -12.0338 C   0  0  0  0  0  0  0  0  0  0  0  0
   -6.9727   11.7556  -13.1375 C   0  0  0  0  0  0  0  0  0  0  0  0
   -7.7097   10.5633  -13.0339 C   0  0  0  0  0  0  0  0  0  0  0  0
   -6.5001   11.8056  -10.7491 C   0  0  0  0  0  0  0  0  0  0  0  0
   -6.8506   12.3073  -14.3824 O   0  0  0  0  0  0  0  0  0  0  0  0
   -5.5377   13.6382  -12.2001 C   0  0  0  0  0  0  0  0  0  0  0  0
   -5.9500   14.5444  -12.9177 O   0  0  0  0  0  0  0  0  0  0  0  0
   -7.2308   10.6159  -10.6131 C   0  0  0  0  0  0  0  0  0  0  0  0
   -7.8083   10.0113  -11.7524 C   0  0  0  0  0  0  0  0  0  0  0  0
   -8.4200    8.8675  -11.2880 N   0  0  0  0  0  0  0  0  0  0  0  0
   -8.2847    8.7400   -9.9757 N   0  0  0  0  0  0  0  0  0  0  0  0
   -7.6047    9.7473   -9.5145 C   0  0  0  0  0  0  0  0  0  0  0  0
   -7.3264    9.8951   -8.0245 C   0  0  0  0  0  0  0  0  0  0  0  0
   -5.9604   10.4805   -7.7353 C   0  0  0  0  0  0  0  0  0  0  0  0
   -4.8075    9.7596   -8.0491 C   0  0  0  0  0  0  0  0  0  0  0  0
   -3.4358   11.5809   -7.2415 C   0  0  0  0  0  0  0  0  0  0  0  0
   -4.5835   12.3061   -6.9225 C   0  0  0  0  0  0  0  0  0  0  0  0
   -3.5481   10.3107   -7.8024 C   0  0  0  0  0  0  0  0  0  0  0  0
   -5.8471   11.7541   -7.1666 C   0  0  0  0  0  0  0  0  0  0  0  0
   -4.4650   13.6954   -6.3241 C   0  0  0  0  0  0  0  0  0  0  0  0
   -1.6558   12.5461  -10.1051 H   0  0  0  0  0  0  0  0  0  0  0  0
   -2.1418   14.8314   -9.9056 H   0  0  0  0  0  0  0  0  0  0  0  0
   -1.3273   14.8503  -11.5065 H   0  0  0  0  0  0  0  0  0  0  0  0
   -3.9292   11.6343  -11.3361 H   0  0  0  0  0  0  0  0  0  0  0  0
   -4.0052   12.5329   -9.7825 H   0  0  0  0  0  0  0  0  0  0  0  0
   -1.6986   11.5246  -12.1863 H   0  0  0  0  0  0  0  0  0  0  0  0
   -3.9654   15.7526  -11.0614 H   0  0  0  0  0  0  0  0  0  0  0  0
   -3.3451   15.2065  -12.6563 H   0  0  0  0  0  0  0  0  0  0  0  0
   -8.1726   10.1006  -13.8930 H   0  0  0  0  0  0  0  0  0  0  0  0
   -6.0607   12.2852   -9.8870 H   0  0  0  0  0  0  0  0  0  0  0  0
   -6.4002   14.1748  -13.6682 H   0  0  0  0  0  0  0  0  0  0  0  0
   -6.6702    9.1804   -9.6379 H   0  0  0  0  0  0  0  0  0  0  0  0
   -8.0295    9.6121   -7.2551 H   0  0  0  0  0  0  0  0  0  0  0  0
   -4.8582    8.8181   -7.4825 H   0  0  0  0  0  0  0  0  0  0  0  0
   -4.8529    9.5421   -9.1264 H   0  0  0  0  0  0  0  0  0  0  0  0
   -2.4600   12.0040   -7.0537 H   0  0  0  0  0  0  0  0  0  0  0  0
   -2.6581    9.7501   -8.0474 H   0  0  0  0  0  0  0  0  0  0  0  0
   -6.7366   12.3128   -6.9153 H   0  0  0  0  0  0  0  0  0  0  0  0
   -5.4700   14.1039   -6.1424 H   0  0  0  0  0  0  0  0  0  0  0  0
   -3.9148   13.6392   -5.3732 H   0  0  0  0  0  0  0  0  0  0  0  0
   -3.9239   14.3505   -7.0227 H   0  0  0  0  0  0  0  0  0  0  0  0
  1  2  1  0  0  0  0
  1  3  1  0  0  0  0
  1  4  1  0  0  0  0
  2  5  1  0  0  0  0
  3  6  1  0  0  0  0
  5  6  1  0  0  0  0
  6 12  1  0  0  0  0
  7  8  1  0  0  0  0
  7 10  1  0  0  0  0
  7 12  2  0  0  0  0
  8  9  1  0  0  0  0
  8 11  2  0  0  0  0
  9 15  2  0  0  0  0
 10 14  2  0  0  0  0
 12 13  1  0  0  0  0
 14 15  1  0  0  0  0
 14 18  1  0  0  0  0
 15 16  1  0  0  0  0
 16 17  2  0  0  0  0
 17 18  1  0  0  0  0
 18 19  1  0  0  0  0
 19 20  2  0  0  0  0
 20 21  1  0  0  0  0
 20 25  1  0  0  0  0
 21 24  1  0  0  0  0
 22 23  1  0  0  0  0
 22 24  2  0  0  0  0
 23 25  2  0  0  0  0
 23 26  1  0  0  0  0
  1 27  1  0  0  0  0
  2 28  1  0  0  0  0
  2 29  1  0  0  0  0
  3 30  1  0  0  0  0
  3 31  1  0  0  0  0
  4 32  1  0  0  0  0
  5 33  1  0  0  0  0
  5 34  1  0  0  0  0
  9 35  1  0  0  0  0
 10 36  1  0  0  0  0
 13 37  1  0  0  0  0
 18 38  1  0  0  0  0
 19 39  1  0  0  0  0
 21 40  1  0  0  0  0
 21 41  1  0  0  0  0
 22 42  1  0  0  0  0
 24 43  1  0  0  0  0
 25 44  1  0  0  0  0
 26 45  1  0  0  0  0
 26 46  1  0  0  0  0
 26 47  1  0  0  0  0
M  END
> <Name>
13

> <IC50[uM]>
0.006

$$$$
13
  -OEChem-05192314333D
 Structure written by MMmdl.
 47 50  0     1  0  0  0  0  0999 V2000
   -2.2088   12.9419  -10.9697 C   0  0  1  0  0  0  0  0  0  0  0  0
   -2.1904   14.4671  -10.9424 C   0  0  0  0  0  0  0  0  0  0  0  0
   -3.6992   12.5876  -10.8377 C   0  0  0  0  0  0  0  0  0  0  0  0
   -1.6826   12.4744  -12.1795 O   0  0  0  0  0  0  0  0  0  0  0  0
   -3.5107   14.9139  -11.6089 C   0  0  0  0  0  0  0  0  0  0  0  0
   -4.3443   13.7200  -11.5243 N   0  0  0  0  0  0  0  0  0  0  0  0
   -6.3525   12.3601  -12.0338 C   0  0  0  0  0  0  0  0  0  0  0  0
   -6.9727   11.7556  -13.1375 C   0  0  0  0  0  0  0  0  0  0  0  0
   -7.7097   10.5633  -13.0339 C   0  0  0  0  0  0  0  0  0  0  0  0
   -6.5001   11.8056  -10.7491 C   0  0  0  0  0  0  0  0  0  0  0  0
   -6.8506   12.3073  -14.3824 O   0  0  0  0  0  0  0  0  0  0  0  0
   -5.5377   13.6382  -12.2001 C   0  0  0  0  0  0  0  0  0  0  0  0
   -5.9500   14.5444  -12.9177 O   0  0  0  0  0  0  0  0  0  0  0  0
   -7.2308   10.6159  -10.6131 C   0  0  0  0  0  0  0  0  0  0  0  0
   -7.8083   10.0113  -11.7524 C   0  0  0  0  0  0  0  0  0  0  0  0
   -8.4200    8.8675  -11.2880 N   0  0  0  0  0  0  0  0  0  0  0  0
   -8.2847    8.7400   -9.9757 N   0  0  0  0  0  0  0  0  0  0  0  0
   -7.6047    9.7473   -9.5145 C   0  0  0  0  0  0  0  0  0  0  0  0
   -7.3264    9.8951   -8.0245 C   0  0  0  0  0  0  0  0  0  0  0  0
   -5.9604   10.4805   -7.7353 C   0  0  0  0  0  0  0  0  0  0  0  0
   -4.8075    9.7596   -8.0491 C   0  0  0  0  0  0  0  0  0  0  0  0
   -3.4358   11.5809   -7.2415 C   0  0  0  0  0  0  0  0  0  0  0  0
   -4.5835   12.3061   -6.9225 C   0  0  0  0  0  0  0  0  0  0  0  0
   -3.5481   10.3107   -7.8024 C   0  0  0  0  0  0  0  0  0  0  0  0
   -5.8471   11.7541   -7.1666 C   0  0  0  0  0  0  0  0  0  0  0  0
   -4.4650   13.6954   -6.3241 C   0  0  0  0  0  0  0  0  0  0  0  0
   -1.6558   12.5461  -10.1051 H   0  0  0  0  0  0  0  0  0  0  0  0
   -2.1418   14.8314   -9.9056 H   0  0  0  0  0  0  0  0  0  0  0  0
   -1.3273   14.8503  -11.5065 H   0  0  0  0  0  0  0  0  0  0  0  0
   -3.9292   11.6343  -11.3361 H   0  0  0  0  0  0  0  0  0  0  0  0
   -4.0052   12.5329   -9.7825 H   0  0  0  0  0  0  0  0  0  0  0  0
   -1.6986   11.5246  -12.1863 H   0  0  0  0  0  0  0  0  0  0  0  0
   -3.9654   15.7526  -11.0614 H   0  0  0  0  0  0  0  0  0  0  0  0
   -3.3451   15.2065  -12.6563 H   0  0  0  0  0  0  0  0  0  0  0  0
   -8.1726   10.1006  -13.8930 H   0  0  0  0  0  0  0  0  0  0  0  0
   -6.0607   12.2852   -9.8870 H   0  0  0  0  0  0  0  0  0  0  0  0
   -6.4002   14.1748  -13.6682 H   0  0  0  0  0  0  0  0  0  0  0  0
   -8.0295    9.6121   -7.2551 H   0  0  0  0  0  0  0  0  0  0  0  0
   -4.8582    8.8181   -7.4825 H   0  0  0  0  0  0  0  0  0  0  0  0
   -4.8529    9.5421   -9.1264 H   0  0  0  0  0  0  0  0  0  0  0  0
   -2.4600   12.0040   -7.0537 H   0  0  0  0  0  0  0  0  0  0  0  0
   -3.0270    9.6184   -7.1248 H   0  0  0  0  0  0  0  0  0  0  0  0
   -3.0225   10.3437   -8.7681 H   0  0  0  0  0  0  0  0  0  0  0  0
   -6.7366   12.3128   -6.9153 H   0  0  0  0  0  0  0  0  0  0  0  0
   -5.4700   14.1039   -6.1424 H   0  0  0  0  0  0  0  0  0  0  0  0
   -3.9148   13.6392   -5.3732 H   0  0  0  0  0  0  0  0  0  0  0  0
   -3.9239   14.3505   -7.0227 H   0  0  0  0  0  0  0  0  0  0  0  0
  1  2  1  0  0  0  0
  1  3  1  0  0  0  0
  1  4  1  0  0  0  0
  2  5  1  0  0  0  0
  3  6  1  0  0  0  0
  5  6  1  0  0  0  0
  6 12  1  0  0  0  0
  7  8  1  0  0  0  0
  7 10  1  0  0  0  0
  7 12  2  0  0  0  0
  8  9  1  0  0  0  0
  8 11  2  0  0  0  0
  9 15  2  0  0  0  0
 10 14  2  0  0  0  0
 12 13  1  0  0  0  0
 14 15  1  0  0  0  0
 14 18  1  0  0  0  0
 15 16  1  0  0  0  0
 16 17  2  0  0  0  0
 17 18  1  0  0  0  0
 18 19  2  0  0  0  0
 19 20  1  0  0  0  0
 20 21  1  0  0  0  0
 20 25  2  0  0  0  0
 21 24  1  0  0  0  0
 22 23  2  0  0  0  0
 22 24  1  0  0  0  0
 23 25  1  0  0  0  0
 23 26  1  0  0  0  0
  1 27  1  0  0  0  0
  2 28  1  0  0  0  0
  2 29  1  0  0  0  0
  3 30  1  0  0  0  0
  3 31  1  0  0  0  0
  4 32  1  0  0  0  0
  5 33  1  0  0  0  0
  5 34  1  0  0  0  0
  9 35  1  0  0  0  0
 10 36  1  0  0  0  0
 13 37  1  0  0  0  0
 19 38  1  0  0  0  0
 21 39  1  0  0  0  0
 21 40  1  0  0  0  0
 22 41  1  0  0  0  0
 24 42  1  0  0  0  0
 24 43  1  0  0  0  0
 25 44  1  0  0  0  0
 26 45  1  0  0  0  0
 26 46  1  0  0  0  0
 26 47  1  0  0  0  0
M  END
> <Name>
13

> <IC50[uM]>
0.006

$$$$
13
  -OEChem-05192314333D
 Structure written by MMmdl.
 47 50  0     1  0  0  0  0  0999 V2000
   -2.2088   12.9419  -10.9697 C   0  0  1  0  0  0  0  0  0  0  0  0
   -2.1904   14.4671  -10.9424 C   0  0  0  0  0  0  0  0  0  0  0  0
   -3.6992   12.5876  -10.8377 C   0  0  0  0  0  0  0  0  0  0  0  0
   -1.6826   12.4744  -12.1795 O   0  0  0  0  0  0  0  0  0  0  0  0
   -3.5107   14.9139  -11.6089 C   0  0  0  0  0  0  0  0  0  0  0  0
   -4.3443   13.7200  -11.5243 N   0  0  0  0  0  0  0  0  0  0  0  0
   -6.3525   12.3601  -12.0338 C   0  0  0  0  0  0  0  0  0  0  0  0
   -6.9727   11.7556  -13.1375 C   0  0  0  0  0  0  0  0  0  0  0  0
   -7.7097   10.5633  -13.0339 C   0  0  0  0  0  0  0  0  0  0  0  0
   -6.5001   11.8056  -10.7491 C   0  0  0  0  0  0  0  0  0  0  0  0
   -6.8506   12.3073  -14.3824 O   0  0  0  0  0  0  0  0  0  0  0  0
   -5.5377   13.6382  -12.2001 C   0  0  0  0  0  0  0  0  0  0  0  0
   -5.9500   14.5444  -12.9177 O   0  0  0  0  0  0  0  0  0  0  0  0
   -7.2308   10.6159  -10.6131 C   0  0  0  0  0  0  0  0  0  0  0  0
   -7.8083   10.0113  -11.7524 C   0  0  0  0  0  0  0  0  0  0  0  0
   -8.4200    8.8675  -11.2880 N   0  0  0  0  0  0  0  0  0  0  0  0
   -8.2847    8.7400   -9.9757 N   0  0  0  0  0  0  0  0  0  0  0  0
   -7.6047    9.7473   -9.5145 C   0  0  0  0  0  0  0  0  0  0  0  0
   -7.3264    9.8951   -8.0245 C   0  0  0  0  0  0  0  0  0  0  0  0
   -5.9604   10.4805   -7.7353 C   0  0  0  0  0  0  0  0  0  0  0  0
   -4.8075    9.7596   -8.0491 C   0  0  0  0  0  0  0  0  0  0  0  0
   -3.4358   11.5809   -7.2415 C   0  0  0  0  0  0  0  0  0  0  0  0
   -4.5835   12.3061   -6.9225 C   0  0  0  0  0  0  0  0  0  0  0  0
   -3.5481   10.3107   -7.8024 C   0  0  0  0  0  0  0  0  0  0  0  0
   -5.8471   11.7541   -7.1666 C   0  0  0  0  0  0  0  0  0  0  0  0
   -4.4650   13.6954   -6.3241 C   0  0  0  0  0  0  0  0  0  0  0  0
   -1.6558   12.5461  -10.1051 H   0  0  0  0  0  0  0  0  0  0  0  0
   -2.1418   14.8314   -9.9056 H   0  0  0  0  0  0  0  0  0  0  0  0
   -1.3273   14.8503  -11.5065 H   0  0  0  0  0  0  0  0  0  0  0  0
   -3.9292   11.6343  -11.3361 H   0  0  0  0  0  0  0  0  0  0  0  0
   -4.0052   12.5329   -9.7825 H   0  0  0  0  0  0  0  0  0  0  0  0
   -1.6986   11.5246  -12.1863 H   0  0  0  0  0  0  0  0  0  0  0  0
   -3.9654   15.7526  -11.0614 H   0  0  0  0  0  0  0  0  0  0  0  0
   -3.3451   15.2065  -12.6563 H   0  0  0  0  0  0  0  0  0  0  0  0
   -8.1726   10.1006  -13.8930 H   0  0  0  0  0  0  0  0  0  0  0  0
   -6.0607   12.2852   -9.8870 H   0  0  0  0  0  0  0  0  0  0  0  0
   -6.4002   14.1748  -13.6682 H   0  0  0  0  0  0  0  0  0  0  0  0
   -8.0295    9.6121   -7.2551 H   0  0  0  0  0  0  0  0  0  0  0  0
   -4.8892    8.7741   -8.4833 H   0  0  0  0  0  0  0  0  0  0  0  0
   -2.8612   12.1924   -7.9527 H   0  0  0  0  0  0  0  0  0  0  0  0
   -2.8628   11.4670   -6.3094 H   0  0  0  0  0  0  0  0  0  0  0  0
   -4.5836   11.8682   -5.9134 H   0  0  0  0  0  0  0  0  0  0  0  0
   -2.6581    9.7501   -8.0474 H   0  0  0  0  0  0  0  0  0  0  0  0
   -6.7366   12.3128   -6.9153 H   0  0  0  0  0  0  0  0  0  0  0  0
   -5.4700   14.1039   -6.1424 H   0  0  0  0  0  0  0  0  0  0  0  0
   -3.9148   13.6392   -5.3732 H   0  0  0  0  0  0  0  0  0  0  0  0
   -3.9239   14.3505   -7.0227 H   0  0  0  0  0  0  0  0  0  0  0  0
  1  2  1  0  0  0  0
  1  3  1  0  0  0  0
  1  4  1  0  0  0  0
  2  5  1  0  0  0  0
  3  6  1  0  0  0  0
  5  6  1  0  0  0  0
  6 12  1  0  0  0  0
  7  8  1  0  0  0  0
  7 10  1  0  0  0  0
  7 12  2  0  0  0  0
  8  9  1  0  0  0  0
  8 11  2  0  0  0  0
  9 15  2  0  0  0  0
 10 14  2  0  0  0  0
 12 13  1  0  0  0  0
 14 15  1  0  0  0  0
 14 18  1  0  0  0  0
 15 16  1  0  0  0  0
 16 17  2  0  0  0  0
 17 18  1  0  0  0  0
 18 19  2  0  0  0  0
 19 20  1  0  0  0  0
 20 21  1  0  0  0  0
 20 25  2  0  0  0  0
 21 24  2  0  0  0  0
 22 23  1  0  0  0  0
 22 24  1  0  0  0  0
 23 25  1  0  0  0  0
 23 26  1  0  0  0  0
  1 27  1  0  0  0  0
  2 28  1  0  0  0  0
  2 29  1  0  0  0  0
  3 30  1  0  0  0  0
  3 31  1  0  0  0  0
  4 32  1  0  0  0  0
  5 33  1  0  0  0  0
  5 34  1  0  0  0  0
  9 35  1  0  0  0  0
 10 36  1  0  0  0  0
 13 37  1  0  0  0  0
 19 38  1  0  0  0  0
 21 39  1  0  0  0  0
 22 40  1  0  0  0  0
 22 41  1  0  0  0  0
 23 42  1  0  0  0  0
 24 43  1  0  0  0  0
 25 44  1  0  0  0  0
 26 45  1  0  0  0  0
 26 46  1  0  0  0  0
 26 47  1  0  0  0  0
M  END
> <Name>
13

> <IC50[uM]>
0.006

$$$$
13
  -OEChem-05192314333D
 Structure written by MMmdl.
 47 50  0     1  0  0  0  0  0999 V2000
   -2.2088   12.9419  -10.9697 C   0  0  1  0  0  0  0  0  0  0  0  0
   -2.1904   14.4671  -10.9424 C   0  0  0  0  0  0  0  0  0  0  0  0
   -3.6992   12.5876  -10.8377 C   0  0  0  0  0  0  0  0  0  0  0  0
   -1.6826   12.4744  -12.1795 O   0  0  0  0  0  0  0  0  0  0  0  0
   -3.5107   14.9139  -11.6089 C   0  0  0  0  0  0  0  0  0  0  0  0
   -4.3443   13.7200  -11.5243 N   0  0  0  0  0  0  0  0  0  0  0  0
   -6.3525   12.3601  -12.0338 C   0  0  0  0  0  0  0  0  0  0  0  0
   -6.9727   11.7556  -13.1375 C   0  0  0  0  0  0  0  0  0  0  0  0
   -7.7097   10.5633  -13.0339 C   0  0  0  0  0  0  0  0  0  0  0  0
   -6.5001   11.8056  -10.7491 C   0  0  0  0  0  0  0  0  0  0  0  0
   -6.8506   12.3073  -14.3824 O   0  0  0  0  0  0  0  0  0  0  0  0
   -5.5377   13.6382  -12.2001 C   0  0  0  0  0  0  0  0  0  0  0  0
   -5.9500   14.5444  -12.9177 O   0  0  0  0  0  0  0  0  0  0  0  0
   -7.2308   10.6159  -10.6131 C   0  0  0  0  0  0  0  0  0  0  0  0
   -7.8083   10.0113  -11.7524 C   0  0  0  0  0  0  0  0  0  0  0  0
   -8.4200    8.8675  -11.2880 N   0  0  0  0  0  0  0  0  0  0  0  0
   -8.2847    8.7400   -9.9757 N   0  0  0  0  0  0  0  0  0  0  0  0
   -7.6047    9.7473   -9.5145 C   0  0  0  0  0  0  0  0  0  0  0  0
   -7.3264    9.8951   -8.0245 C   0  0  0  0  0  0  0  0  0  0  0  0
   -5.9604   10.4805   -7.7353 C   0  0  0  0  0  0  0  0  0  0  0  0
   -4.8075    9.7596   -8.0491 C   0  0  0  0  0  0  0  0  0  0  0  0
   -3.4358   11.5809   -7.2415 C   0  0  0  0  0  0  0  0  0  0  0  0
   -4.5835   12.3061   -6.9225 C   0  0  0  0  0  0  0  0  0  0  0  0
   -3.5481   10.3107   -7.8024 C   0  0  0  0  0  0  0  0  0  0  0  0
   -5.8471   11.7541   -7.1666 C   0  0  0  0  0  0  0  0  0  0  0  0
   -4.4650   13.6954   -6.3241 C   0  0  0  0  0  0  0  0  0  0  0  0
   -1.6558   12.5461  -10.1051 H   0  0  0  0  0  0  0  0  0  0  0  0
   -2.1418   14.8314   -9.9056 H   0  0  0  0  0  0  0  0  0  0  0  0
   -1.3273   14.8503  -11.5065 H   0  0  0  0  0  0  0  0  0  0  0  0
   -3.9292   11.6343  -11.3361 H   0  0  0  0  0  0  0  0  0  0  0  0
   -4.0052   12.5329   -9.7825 H   0  0  0  0  0  0  0  0  0  0  0  0
   -1.6986   11.5246  -12.1863 H   0  0  0  0  0  0  0  0  0  0  0  0
   -3.9654   15.7526  -11.0614 H   0  0  0  0  0  0  0  0  0  0  0  0
   -3.3451   15.2065  -12.6563 H   0  0  0  0  0  0  0  0  0  0  0  0
   -8.1726   10.1006  -13.8930 H   0  0  0  0  0  0  0  0  0  0  0  0
   -6.0607   12.2852   -9.8870 H   0  0  0  0  0  0  0  0  0  0  0  0
   -6.4002   14.1748  -13.6682 H   0  0  0  0  0  0  0  0  0  0  0  0
   -8.0295    9.6121   -7.2551 H   0  0  0  0  0  0  0  0  0  0  0  0
   -5.9749   10.0291   -6.7323 H   0  0  0  0  0  0  0  0  0  0  0  0
   -4.8892    8.7741   -8.4833 H   0  0  0  0  0  0  0  0  0  0  0  0
   -2.8612   12.1924   -7.9527 H   0  0  0  0  0  0  0  0  0  0  0  0
   -2.8628   11.4670   -6.3094 H   0  0  0  0  0  0  0  0  0  0  0  0
   -2.6581    9.7501   -8.0474 H   0  0  0  0  0  0  0  0  0  0  0  0
   -6.7366   12.3128   -6.9153 H   0  0  0  0  0  0  0  0  0  0  0  0
   -5.4700   14.1039   -6.1424 H   0  0  0  0  0  0  0  0  0  0  0  0
   -3.9148   13.6392   -5.3732 H   0  0  0  0  0  0  0  0  0  0  0  0
   -3.9239   14.3505   -7.0227 H   0  0  0  0  0  0  0  0  0  0  0  0
  1  2  1  0  0  0  0
  1  3  1  0  0  0  0
  1  4  1  0  0  0  0
  2  5  1  0  0  0  0
  3  6  1  0  0  0  0
  5  6  1  0  0  0  0
  6 12  1  0  0  0  0
  7  8  1  0  0  0  0
  7 10  1  0  0  0  0
  7 12  2  0  0  0  0
  8  9  1  0  0  0  0
  8 11  2  0  0  0  0
  9 15  2  0  0  0  0
 10 14  2  0  0  0  0
 12 13  1  0  0  0  0
 14 15  1  0  0  0  0
 14 18  1  0  0  0  0
 15 16  1  0  0  0  0
 16 17  2  0  0  0  0
 17 18  1  0  0  0  0
 18 19  2  0  0  0  0
 19 20  1  0  0  0  0
 20 21  1  0  0  0  0
 20 25  1  0  0  0  0
 21 24  2  0  0  0  0
 22 23  1  0  0  0  0
 22 24  1  0  0  0  0
 23 25  2  0  0  0  0
 23 26  1  0  0  0  0
  1 27  1  0  0  0  0
  2 28  1  0  0  0  0
  2 29  1  0  0  0  0
  3 30  1  0  0  0  0
  3 31  1  0  0  0  0
  4 32  1  0  0  0  0
  5 33  1  0  0  0  0
  5 34  1  0  0  0  0
  9 35  1  0  0  0  0
 10 36  1  0  0  0  0
 13 37  1  0  0  0  0
 19 38  1  0  0  0  0
 20 39  1  0  0  0  0
 21 40  1  0  0  0  0
 22 41  1  0  0  0  0
 22 42  1  0  0  0  0
 24 43  1  0  0  0  0
 25 44  1  0  0  0  0
 26 45  1  0  0  0  0
 26 46  1  0  0  0  0
 26 47  1  0  0  0  0
M  END
> <Name>
13

> <IC50[uM]>
0.006

$$$$
13
  -OEChem-05192314333D
 Structure written by MMmdl.
 47 50  0     1  0  0  0  0  0999 V2000
   -2.2088   12.9419  -10.9697 C   0  0  1  0  0  0  0  0  0  0  0  0
   -2.1904   14.4671  -10.9424 C   0  0  0  0  0  0  0  0  0  0  0  0
   -3.6992   12.5876  -10.8377 C   0  0  0  0  0  0  0  0  0  0  0  0
   -1.6826   12.4744  -12.1795 O   0  0  0  0  0  0  0  0  0  0  0  0
   -3.5107   14.9139  -11.6089 C   0  0  0  0  0  0  0  0  0  0  0  0
   -4.3443   13.7200  -11.5243 N   0  0  0  0  0  0  0  0  0  0  0  0
   -6.3525   12.3601  -12.0338 C   0  0  0  0  0  0  0  0  0  0  0  0
   -6.9727   11.7556  -13.1375 C   0  0  0  0  0  0  0  0  0  0  0  0
   -7.7097   10.5633  -13.0339 C   0  0  0  0  0  0  0  0  0  0  0  0
   -6.5001   11.8056  -10.7491 C   0  0  0  0  0  0  0  0  0  0  0  0
   -6.8506   12.3073  -14.3824 O   0  0  0  0  0  0  0  0  0  0  0  0
   -5.5377   13.6382  -12.2001 C   0  0  0  0  0  0  0  0  0  0  0  0
   -5.9500   14.5444  -12.9177 O   0  0  0  0  0  0  0  0  0  0  0  0
   -7.2308   10.6159  -10.6131 C   0  0  0  0  0  0  0  0  0  0  0  0
   -7.8083   10.0113  -11.7524 C   0  0  0  0  0  0  0  0  0  0  0  0
   -8.4200    8.8675  -11.2880 N   0  0  0  0  0  0  0  0  0  0  0  0
   -8.2847    8.7400   -9.9757 N   0  0  0  0  0  0  0  0  0  0  0  0
   -7.6047    9.7473   -9.5145 C   0  0  0  0  0  0  0  0  0  0  0  0
   -7.3264    9.8951   -8.0245 C   0  0  0  0  0  0  0  0  0  0  0  0
   -5.9604   10.4805   -7.7353 C   0  0  0  0  0  0  0  0  0  0  0  0
   -4.8075    9.7596   -8.0491 C   0  0  0  0  0  0  0  0  0  0  0  0
   -3.4358   11.5809   -7.2415 C   0  0  0  0  0  0  0  0  0  0  0  0
   -4.5835   12.3061   -6.9225 C   0  0  0  0  0  0  0  0  0  0  0  0
   -3.5481   10.3107   -7.8024 C   0  0  0  0  0  0  0  0  0  0  0  0
   -5.8471   11.7541   -7.1666 C   0  0  0  0  0  0  0  0  0  0  0  0
   -4.4650   13.6954   -6.3241 C   0  0  0  0  0  0  0  0  0  0  0  0
   -1.6558   12.5461  -10.1051 H   0  0  0  0  0  0  0  0  0  0  0  0
   -2.1418   14.8314   -9.9056 H   0  0  0  0  0  0  0  0  0  0  0  0
   -1.3273   14.8503  -11.5065 H   0  0  0  0  0  0  0  0  0  0  0  0
   -3.9292   11.6343  -11.3361 H   0  0  0  0  0  0  0  0  0  0  0  0
   -4.0052   12.5329   -9.7825 H   0  0  0  0  0  0  0  0  0  0  0  0
   -1.6986   11.5246  -12.1863 H   0  0  0  0  0  0  0  0  0  0  0  0
   -3.9654   15.7526  -11.0614 H   0  0  0  0  0  0  0  0  0  0  0  0
   -3.3451   15.2065  -12.6563 H   0  0  0  0  0  0  0  0  0  0  0  0
   -8.1726   10.1006  -13.8930 H   0  0  0  0  0  0  0  0  0  0  0  0
   -6.0607   12.2852   -9.8870 H   0  0  0  0  0  0  0  0  0  0  0  0
   -6.4002   14.1748  -13.6682 H   0  0  0  0  0  0  0  0  0  0  0  0
   -6.6702    9.1804   -9.6379 H   0  0  0  0  0  0  0  0  0  0  0  0
   -8.0295    9.6121   -7.2551 H   0  0  0  0  0  0  0  0  0  0  0  0
   -4.8892    8.7741   -8.4833 H   0  0  0  0  0  0  0  0  0  0  0  0
   -2.8612   12.1924   -7.9527 H   0  0  0  0  0  0  0  0  0  0  0  0
   -2.8628   11.4670   -6.3094 H   0  0  0  0  0  0  0  0  0  0  0  0
   -2.6581    9.7501   -8.0474 H   0  0  0  0  0  0  0  0  0  0  0  0
   -6.7366   12.3128   -6.9153 H   0  0  0  0  0  0  0  0  0  0  0  0
   -5.4700   14.1039   -6.1424 H   0  0  0  0  0  0  0  0  0  0  0  0
   -3.9148   13.6392   -5.3732 H   0  0  0  0  0  0  0  0  0  0  0  0
   -3.9239   14.3505   -7.0227 H   0  0  0  0  0  0  0  0  0  0  0  0
  1  2  1  0  0  0  0
  1  3  1  0  0  0  0
  1  4  1  0  0  0  0
  2  5  1  0  0  0  0
  3  6  1  0  0  0  0
  5  6  1  0  0  0  0
  6 12  1  0  0  0  0
  7  8  1  0  0  0  0
  7 10  1  0  0  0  0
  7 12  2  0  0  0  0
  8  9  1  0  0  0  0
  8 11  2  0  0  0  0
  9 15  2  0  0  0  0
 10 14  2  0  0  0  0
 12 13  1  0  0  0  0
 14 15  1  0  0  0  0
 14 18  1  0  0  0  0
 15 16  1  0  0  0  0
 16 17  2  0  0  0  0
 17 18  1  0  0  0  0
 18 19  1  0  0  0  0
 19 20  2  0  0  0  0
 20 21  1  0  0  0  0
 20 25  1  0  0  0  0
 21 24  2  0  0  0  0
 22 23  1  0  0  0  0
 22 24  1  0  0  0  0
 23 25  2  0  0  0  0
 23 26  1  0  0  0  0
  1 27  1  0  0  0  0
  2 28  1  0  0  0  0
  2 29  1  0  0  0  0
  3 30  1  0  0  0  0
  3 31  1  0  0  0  0
  4 32  1  0  0  0  0
  5 33  1  0  0  0  0
  5 34  1  0  0  0  0
  9 35  1  0  0  0  0
 10 36  1  0  0  0  0
 13 37  1  0  0  0  0
 18 38  1  0  0  0  0
 19 39  1  0  0  0  0
 21 40  1  0  0  0  0
 22 41  1  0  0  0  0
 22 42  1  0  0  0  0
 24 43  1  0  0  0  0
 25 44  1  0  0  0  0
 26 45  1  0  0  0  0
 26 46  1  0  0  0  0
 26 47  1  0  0  0  0
M  END
> <Name>
13

> <IC50[uM]>
0.006

$$$$
13
  -OEChem-05192314333D
 Structure written by MMmdl.
 47 50  0     1  0  0  0  0  0999 V2000
   -2.2088   12.9419  -10.9697 C   0  0  1  0  0  0  0  0  0  0  0  0
   -2.1904   14.4671  -10.9424 C   0  0  0  0  0  0  0  0  0  0  0  0
   -3.6992   12.5876  -10.8377 C   0  0  0  0  0  0  0  0  0  0  0  0
   -1.6826   12.4744  -12.1795 O   0  0  0  0  0  0  0  0  0  0  0  0
   -3.5107   14.9139  -11.6089 C   0  0  0  0  0  0  0  0  0  0  0  0
   -4.3443   13.7200  -11.5243 N   0  0  0  0  0  0  0  0  0  0  0  0
   -6.3525   12.3601  -12.0338 C   0  0  0  0  0  0  0  0  0  0  0  0
   -6.9727   11.7556  -13.1375 C   0  0  0  0  0  0  0  0  0  0  0  0
   -7.7097   10.5633  -13.0339 C   0  0  0  0  0  0  0  0  0  0  0  0
   -6.5001   11.8056  -10.7491 C   0  0  0  0  0  0  0  0  0  0  0  0
   -6.8506   12.3073  -14.3824 O   0  0  0  0  0  0  0  0  0  0  0  0
   -5.5377   13.6382  -12.2001 C   0  0  0  0  0  0  0  0  0  0  0  0
   -5.9500   14.5444  -12.9177 O   0  0  0  0  0  0  0  0  0  0  0  0
   -7.2308   10.6159  -10.6131 C   0  0  0  0  0  0  0  0  0  0  0  0
   -7.8083   10.0113  -11.7524 C   0  0  0  0  0  0  0  0  0  0  0  0
   -8.4200    8.8675  -11.2880 N   0  0  0  0  0  0  0  0  0  0  0  0
   -8.2847    8.7400   -9.9757 N   0  0  0  0  0  0  0  0  0  0  0  0
   -7.6047    9.7473   -9.5145 C   0  0  0  0  0  0  0  0  0  0  0  0
   -7.3264    9.8951   -8.0245 C   0  0  0  0  0  0  0  0  0  0  0  0
   -5.9604   10.4805   -7.7353 C   0  0  0  0  0  0  0  0  0  0  0  0
   -4.8075    9.7596   -8.0491 C   0  0  0  0  0  0  0  0  0  0  0  0
   -3.4358   11.5809   -7.2415 C   0  0  0  0  0  0  0  0  0  0  0  0
   -4.5835   12.3061   -6.9225 C   0  0  0  0  0  0  0  0  0  0  0  0
   -3.5481   10.3107   -7.8024 C   0  0  0  0  0  0  0  0  0  0  0  0
   -5.8471   11.7541   -7.1666 C   0  0  0  0  0  0  0  0  0  0  0  0
   -4.4650   13.6954   -6.3241 C   0  0  0  0  0  0  0  0  0  0  0  0
   -1.6558   12.5461  -10.1051 H   0  0  0  0  0  0  0  0  0  0  0  0
   -2.1418   14.8314   -9.9056 H   0  0  0  0  0  0  0  0  0  0  0  0
   -1.3273   14.8503  -11.5065 H   0  0  0  0  0  0  0  0  0  0  0  0
   -3.9292   11.6343  -11.3361 H   0  0  0  0  0  0  0  0  0  0  0  0
   -4.0052   12.5329   -9.7825 H   0  0  0  0  0  0  0  0  0  0  0  0
   -1.6986   11.5246  -12.1863 H   0  0  0  0  0  0  0  0  0  0  0  0
   -3.9654   15.7526  -11.0614 H   0  0  0  0  0  0  0  0  0  0  0  0
   -3.3451   15.2065  -12.6563 H   0  0  0  0  0  0  0  0  0  0  0  0
   -8.1726   10.1006  -13.8930 H   0  0  0  0  0  0  0  0  0  0  0  0
   -6.0607   12.2852   -9.8870 H   0  0  0  0  0  0  0  0  0  0  0  0
   -6.4002   14.1748  -13.6682 H   0  0  0  0  0  0  0  0  0  0  0  0
   -8.0295    9.6121   -7.2551 H   0  0  0  0  0  0  0  0  0  0  0  0
   -4.8892    8.7741   -8.4833 H   0  0  0  0  0  0  0  0  0  0  0  0
   -2.8612   12.1924   -7.9527 H   0  0  0  0  0  0  0  0  0  0  0  0
   -2.8628   11.4670   -6.3094 H   0  0  0  0  0  0  0  0  0  0  0  0
   -3.0270    9.6184   -7.1248 H   0  0  0  0  0  0  0  0  0  0  0  0
   -3.0225   10.3437   -8.7681 H   0  0  0  0  0  0  0  0  0  0  0  0
   -6.7366   12.3128   -6.9153 H   0  0  0  0  0  0  0  0  0  0  0  0
   -5.4700   14.1039   -6.1424 H   0  0  0  0  0  0  0  0  0  0  0  0
   -3.9148   13.6392   -5.3732 H   0  0  0  0  0  0  0  0  0  0  0  0
   -3.9239   14.3505   -7.0227 H   0  0  0  0  0  0  0  0  0  0  0  0
  1  2  1  0  0  0  0
  1  3  1  0  0  0  0
  1  4  1  0  0  0  0
  2  5  1  0  0  0  0
  3  6  1  0  0  0  0
  5  6  1  0  0  0  0
  6 12  1  0  0  0  0
  7  8  1  0  0  0  0
  7 10  1  0  0  0  0
  7 12  2  0  0  0  0
  8  9  1  0  0  0  0
  8 11  2  0  0  0  0
  9 15  2  0  0  0  0
 10 14  2  0  0  0  0
 12 13  1  0  0  0  0
 14 15  1  0  0  0  0
 14 18  1  0  0  0  0
 15 16  1  0  0  0  0
 16 17  2  0  0  0  0
 17 18  1  0  0  0  0
 18 19  2  0  0  0  0
 19 20  1  0  0  0  0
 20 21  2  0  0  0  0
 20 25  1  0  0  0  0
 21 24  1  0  0  0  0
 22 23  1  0  0  0  0
 22 24  1  0  0  0  0
 23 25  2  0  0  0  0
 23 26  1  0  0  0  0
  1 27  1  0  0  0  0
  2 28  1  0  0  0  0
  2 29  1  0  0  0  0
  3 30  1  0  0  0  0
  3 31  1  0  0  0  0
  4 32  1  0  0  0  0
  5 33  1  0  0  0  0
  5 34  1  0  0  0  0
  9 35  1  0  0  0  0
 10 36  1  0  0  0  0
 13 37  1  0  0  0  0
 19 38  1  0  0  0  0
 21 39  1  0  0  0  0
 22 40  1  0  0  0  0
 22 41  1  0  0  0  0
 24 42  1  0  0  0  0
 24 43  1  0  0  0  0
 25 44  1  0  0  0  0
 26 45  1  0  0  0  0
 26 46  1  0  0  0  0
 26 47  1  0  0  0  0
M  END
> <Name>
13

> <IC50[uM]>
0.006

$$$$
13
  -OEChem-05192314333D
 Structure written by MMmdl.
 47 50  0     1  0  0  0  0  0999 V2000
   -2.2088   12.9419  -10.9697 C   0  0  1  0  0  0  0  0  0  0  0  0
   -2.1904   14.4671  -10.9424 C   0  0  0  0  0  0  0  0  0  0  0  0
   -3.6992   12.5876  -10.8377 C   0  0  0  0  0  0  0  0  0  0  0  0
   -1.6826   12.4744  -12.1795 O   0  0  0  0  0  0  0  0  0  0  0  0
   -3.5107   14.9139  -11.6089 C   0  0  0  0  0  0  0  0  0  0  0  0
   -4.3443   13.7200  -11.5243 N   0  0  0  0  0  0  0  0  0  0  0  0
   -6.3525   12.3601  -12.0338 C   0  0  0  0  0  0  0  0  0  0  0  0
   -6.9727   11.7556  -13.1375 C   0  0  0  0  0  0  0  0  0  0  0  0
   -7.7097   10.5633  -13.0339 C   0  0  0  0  0  0  0  0  0  0  0  0
   -6.5001   11.8056  -10.7491 C   0  0  0  0  0  0  0  0  0  0  0  0
   -6.8506   12.3073  -14.3824 O   0  0  0  0  0  0  0  0  0  0  0  0
   -5.5377   13.6382  -12.2001 C   0  0  0  0  0  0  0  0  0  0  0  0
   -5.9500   14.5444  -12.9177 O   0  0  0  0  0  0  0  0  0  0  0  0
   -7.2308   10.6159  -10.6131 C   0  0  0  0  0  0  0  0  0  0  0  0
   -7.8083   10.0113  -11.7524 C   0  0  0  0  0  0  0  0  0  0  0  0
   -8.4200    8.8675  -11.2880 N   0  0  0  0  0  0  0  0  0  0  0  0
   -8.2847    8.7400   -9.9757 N   0  0  0  0  0  0  0  0  0  0  0  0
   -7.6047    9.7473   -9.5145 C   0  0  0  0  0  0  0  0  0  0  0  0
   -7.3264    9.8951   -8.0245 C   0  0  0  0  0  0  0  0  0  0  0  0
   -5.9604   10.4805   -7.7353 C   0  0  0  0  0  0  0  0  0  0  0  0
   -4.8075    9.7596   -8.0491 C   0  0  0  0  0  0  0  0  0  0  0  0
   -3.4358   11.5809   -7.2415 C   0  0  0  0  0  0  0  0  0  0  0  0
   -4.5835   12.3061   -6.9225 C   0  0  0  0  0  0  0  0  0  0  0  0
   -3.5481   10.3107   -7.8024 C   0  0  0  0  0  0  0  0  0  0  0  0
   -5.8471   11.7541   -7.1666 C   0  0  0  0  0  0  0  0  0  0  0  0
   -4.4650   13.6954   -6.3241 C   0  0  0  0  0  0  0  0  0  0  0  0
   -1.6558   12.5461  -10.1051 H   0  0  0  0  0  0  0  0  0  0  0  0
   -2.1418   14.8314   -9.9056 H   0  0  0  0  0  0  0  0  0  0  0  0
   -1.3273   14.8503  -11.5065 H   0  0  0  0  0  0  0  0  0  0  0  0
   -3.9292   11.6343  -11.3361 H   0  0  0  0  0  0  0  0  0  0  0  0
   -4.0052   12.5329   -9.7825 H   0  0  0  0  0  0  0  0  0  0  0  0
   -1.6986   11.5246  -12.1863 H   0  0  0  0  0  0  0  0  0  0  0  0
   -3.9654   15.7526  -11.0614 H   0  0  0  0  0  0  0  0  0  0  0  0
   -3.3451   15.2065  -12.6563 H   0  0  0  0  0  0  0  0  0  0  0  0
   -8.1726   10.1006  -13.8930 H   0  0  0  0  0  0  0  0  0  0  0  0
   -5.4892   11.6119  -10.3610 H   0  0  0  0  0  0  0  0  0  0  0  0
   -6.9942   12.5634  -10.1232 H   0  0  0  0  0  0  0  0  0  0  0  0
   -6.4002   14.1748  -13.6682 H   0  0  0  0  0  0  0  0  0  0  0  0
   -8.0295    9.6121   -7.2551 H   0  0  0  0  0  0  0  0  0  0  0  0
   -4.8582    8.8181   -7.4825 H   0  0  0  0  0  0  0  0  0  0  0  0
   -4.8529    9.5421   -9.1264 H   0  0  0  0  0  0  0  0  0  0  0  0
   -2.4600   12.0040   -7.0537 H   0  0  0  0  0  0  0  0  0  0  0  0
   -2.6581    9.7501   -8.0474 H   0  0  0  0  0  0  0  0  0  0  0  0
   -6.7366   12.3128   -6.9153 H   0  0  0  0  0  0  0  0  0  0  0  0
   -5.4700   14.1039   -6.1424 H   0  0  0  0  0  0  0  0  0  0  0  0
   -3.9148   13.6392   -5.3732 H   0  0  0  0  0  0  0  0  0  0  0  0
   -3.9239   14.3505   -7.0227 H   0  0  0  0  0  0  0  0  0  0  0  0
  1  2  1  0  0  0  0
  1  3  1  0  0  0  0
  1  4  1  0  0  0  0
  2  5  1  0  0  0  0
  3  6  1  0  0  0  0
  5  6  1  0  0  0  0
  6 12  1  0  0  0  0
  7  8  1  0  0  0  0
  7 10  1  0  0  0  0
  7 12  2  0  0  0  0
  8  9  1  0  0  0  0
  8 11  2  0  0  0  0
  9 15  2  0  0  0  0
 10 14  1  0  0  0  0
 12 13  1  0  0  0  0
 14 15  1  0  0  0  0
 14 18  2  0  0  0  0
 15 16  1  0  0  0  0
 16 17  2  0  0  0  0
 17 18  1  0  0  0  0
 18 19  1  0  0  0  0
 19 20  2  0  0  0  0
 20 21  1  0  0  0  0
 20 25  1  0  0  0  0
 21 24  1  0  0  0  0
 22 23  1  0  0  0  0
 22 24  2  0  0  0  0
 23 25  2  0  0  0  0
 23 26  1  0  0  0  0
  1 27  1  0  0  0  0
  2 28  1  0  0  0  0
  2 29  1  0  0  0  0
  3 30  1  0  0  0  0
  3 31  1  0  0  0  0
  4 32  1  0  0  0  0
  5 33  1  0  0  0  0
  5 34  1  0  0  0  0
  9 35  1  0  0  0  0
 10 36  1  0  0  0  0
 10 37  1  0  0  0  0
 13 38  1  0  0  0  0
 19 39  1  0  0  0  0
 21 40  1  0  0  0  0
 21 41  1  0  0  0  0
 22 42  1  0  0  0  0
 24 43  1  0  0  0  0
 25 44  1  0  0  0  0
 26 45  1  0  0  0  0
 26 46  1  0  0  0  0
 26 47  1  0  0  0  0
M  END
> <Name>
13

> <IC50[uM]>
0.006

$$$$
13
  -OEChem-05192314333D
 Structure written by MMmdl.
 47 50  0     1  0  0  0  0  0999 V2000
   -2.2088   12.9419  -10.9697 C   0  0  1  0  0  0  0  0  0  0  0  0
   -2.1904   14.4671  -10.9424 C   0  0  0  0  0  0  0  0  0  0  0  0
   -3.6992   12.5876  -10.8377 C   0  0  0  0  0  0  0  0  0  0  0  0
   -1.6826   12.4744  -12.1795 O   0  0  0  0  0  0  0  0  0  0  0  0
   -3.5107   14.9139  -11.6089 C   0  0  0  0  0  0  0  0  0  0  0  0
   -4.3443   13.7200  -11.5243 N   0  0  0  0  0  0  0  0  0  0  0  0
   -6.3525   12.3601  -12.0338 C   0  0  0  0  0  0  0  0  0  0  0  0
   -6.9727   11.7556  -13.1375 C   0  0  0  0  0  0  0  0  0  0  0  0
   -7.7097   10.5633  -13.0339 C   0  0  0  0  0  0  0  0  0  0  0  0
   -6.5001   11.8056  -10.7491 C   0  0  0  0  0  0  0  0  0  0  0  0
   -6.8506   12.3073  -14.3824 O   0  0  0  0  0  0  0  0  0  0  0  0
   -5.5377   13.6382  -12.2001 C   0  0  0  0  0  0  0  0  0  0  0  0
   -5.9500   14.5444  -12.9177 O   0  0  0  0  0  0  0  0  0  0  0  0
   -7.2308   10.6159  -10.6131 C   0  0  0  0  0  0  0  0  0  0  0  0
   -7.8083   10.0113  -11.7524 C   0  0  0  0  0  0  0  0  0  0  0  0
   -8.4200    8.8675  -11.2880 N   0  0  0  0  0  0  0  0  0  0  0  0
   -8.2847    8.7400   -9.9757 N   0  0  0  0  0  0  0  0  0  0  0  0
   -7.6047    9.7473   -9.5145 C   0  0  0  0  0  0  0  0  0  0  0  0
   -7.3264    9.8951   -8.0245 C   0  0  0  0  0  0  0  0  0  0  0  0
   -5.9604   10.4805   -7.7353 C   0  0  0  0  0  0  0  0  0  0  0  0
   -4.8075    9.7596   -8.0491 C   0  0  0  0  0  0  0  0  0  0  0  0
   -3.4358   11.5809   -7.2415 C   0  0  0  0  0  0  0  0  0  0  0  0
   -4.5835   12.3061   -6.9225 C   0  0  0  0  0  0  0  0  0  0  0  0
   -3.5481   10.3107   -7.8024 C   0  0  0  0  0  0  0  0  0  0  0  0
   -5.8471   11.7541   -7.1666 C   0  0  0  0  0  0  0  0  0  0  0  0
   -4.4650   13.6954   -6.3241 C   0  0  0  0  0  0  0  0  0  0  0  0
   -1.6558   12.5461  -10.1051 H   0  0  0  0  0  0  0  0  0  0  0  0
   -2.1418   14.8314   -9.9056 H   0  0  0  0  0  0  0  0  0  0  0  0
   -1.3273   14.8503  -11.5065 H   0  0  0  0  0  0  0  0  0  0  0  0
   -3.9292   11.6343  -11.3361 H   0  0  0  0  0  0  0  0  0  0  0  0
   -4.0052   12.5329   -9.7825 H   0  0  0  0  0  0  0  0  0  0  0  0
   -1.6986   11.5246  -12.1863 H   0  0  0  0  0  0  0  0  0  0  0  0
   -3.9654   15.7526  -11.0614 H   0  0  0  0  0  0  0  0  0  0  0  0
   -3.3451   15.2065  -12.6563 H   0  0  0  0  0  0  0  0  0  0  0  0
   -8.1726   10.1006  -13.8930 H   0  0  0  0  0  0  0  0  0  0  0  0
   -5.4892   11.6119  -10.3610 H   0  0  0  0  0  0  0  0  0  0  0  0
   -6.9942   12.5634  -10.1232 H   0  0  0  0  0  0  0  0  0  0  0  0
   -6.4002   14.1748  -13.6682 H   0  0  0  0  0  0  0  0  0  0  0  0
   -8.0295    9.6121   -7.2551 H   0  0  0  0  0  0  0  0  0  0  0  0
   -4.8892    8.7741   -8.4833 H   0  0  0  0  0  0  0  0  0  0  0  0
   -2.8612   12.1924   -7.9527 H   0  0  0  0  0  0  0  0  0  0  0  0
   -2.8628   11.4670   -6.3094 H   0  0  0  0  0  0  0  0  0  0  0  0
   -2.6581    9.7501   -8.0474 H   0  0  0  0  0  0  0  0  0  0  0  0
   -6.7366   12.3128   -6.9153 H   0  0  0  0  0  0  0  0  0  0  0  0
   -5.4700   14.1039   -6.1424 H   0  0  0  0  0  0  0  0  0  0  0  0
   -3.9148   13.6392   -5.3732 H   0  0  0  0  0  0  0  0  0  0  0  0
   -3.9239   14.3505   -7.0227 H   0  0  0  0  0  0  0  0  0  0  0  0
  1  2  1  0  0  0  0
  1  3  1  0  0  0  0
  1  4  1  0  0  0  0
  2  5  1  0  0  0  0
  3  6  1  0  0  0  0
  5  6  1  0  0  0  0
  6 12  1  0  0  0  0
  7  8  1  0  0  0  0
  7 10  1  0  0  0  0
  7 12  2  0  0  0  0
  8  9  1  0  0  0  0
  8 11  2  0  0  0  0
  9 15  2  0  0  0  0
 10 14  1  0  0  0  0
 12 13  1  0  0  0  0
 14 15  1  0  0  0  0
 14 18  2  0  0  0  0
 15 16  1  0  0  0  0
 16 17  2  0  0  0  0
 17 18  1  0  0  0  0
 18 19  1  0  0  0  0
 19 20  2  0  0  0  0
 20 21  1  0  0  0  0
 20 25  1  0  0  0  0
 21 24  2  0  0  0  0
 22 23  1  0  0  0  0
 22 24  1  0  0  0  0
 23 25  2  0  0  0  0
 23 26  1  0  0  0  0
  1 27  1  0  0  0  0
  2 28  1  0  0  0  0
  2 29  1  0  0  0  0
  3 30  1  0  0  0  0
  3 31  1  0  0  0  0
  4 32  1  0  0  0  0
  5 33  1  0  0  0  0
  5 34  1  0  0  0  0
  9 35  1  0  0  0  0
 10 36  1  0  0  0  0
 10 37  1  0  0  0  0
 13 38  1  0  0  0  0
 19 39  1  0  0  0  0
 21 40  1  0  0  0  0
 22 41  1  0  0  0  0
 22 42  1  0  0  0  0
 24 43  1  0  0  0  0
 25 44  1  0  0  0  0
 26 45  1  0  0  0  0
 26 46  1  0  0  0  0
 26 47  1  0  0  0  0
M  END
> <Name>
13

> <IC50[uM]>
0.006

$$$$
13
  -OEChem-05192314333D
 Structure written by MMmdl.
 47 50  0     1  0  0  0  0  0999 V2000
   -2.2088   12.9419  -10.9697 C   0  0  1  0  0  0  0  0  0  0  0  0
   -2.1904   14.4671  -10.9424 C   0  0  0  0  0  0  0  0  0  0  0  0
   -3.6992   12.5876  -10.8377 C   0  0  0  0  0  0  0  0  0  0  0  0
   -1.6826   12.4744  -12.1795 O   0  0  0  0  0  0  0  0  0  0  0  0
   -3.5107   14.9139  -11.6089 C   0  0  0  0  0  0  0  0  0  0  0  0
   -4.3443   13.7200  -11.5243 N   0  0  0  0  0  0  0  0  0  0  0  0
   -6.3525   12.3601  -12.0338 C   0  0  0  0  0  0  0  0  0  0  0  0
   -6.9727   11.7556  -13.1375 C   0  0  0  0  0  0  0  0  0  0  0  0
   -7.7097   10.5633  -13.0339 C   0  0  0  0  0  0  0  0  0  0  0  0
   -6.5001   11.8056  -10.7491 C   0  0  0  0  0  0  0  0  0  0  0  0
   -6.8506   12.3073  -14.3824 O   0  0  0  0  0  0  0  0  0  0  0  0
   -5.5377   13.6382  -12.2001 C   0  0  0  0  0  0  0  0  0  0  0  0
   -5.9500   14.5444  -12.9177 O   0  0  0  0  0  0  0  0  0  0  0  0
   -7.2308   10.6159  -10.6131 C   0  0  0  0  0  0  0  0  0  0  0  0
   -7.8083   10.0113  -11.7524 C   0  0  0  0  0  0  0  0  0  0  0  0
   -8.4200    8.8675  -11.2880 N   0  0  0  0  0  0  0  0  0  0  0  0
   -8.2847    8.7400   -9.9757 N   0  0  0  0  0  0  0  0  0  0  0  0
   -7.6047    9.7473   -9.5145 C   0  0  0  0  0  0  0  0  0  0  0  0
   -7.3264    9.8951   -8.0245 C   0  0  0  0  0  0  0  0  0  0  0  0
   -5.9604   10.4805   -7.7353 C   0  0  0  0  0  0  0  0  0  0  0  0
   -4.8075    9.7596   -8.0491 C   0  0  0  0  0  0  0  0  0  0  0  0
   -3.4358   11.5809   -7.2415 C   0  0  0  0  0  0  0  0  0  0  0  0
   -4.5835   12.3061   -6.9225 C   0  0  0  0  0  0  0  0  0  0  0  0
   -3.5481   10.3107   -7.8024 C   0  0  0  0  0  0  0  0  0  0  0  0
   -5.8471   11.7541   -7.1666 C   0  0  0  0  0  0  0  0  0  0  0  0
   -4.4650   13.6954   -6.3241 C   0  0  0  0  0  0  0  0  0  0  0  0
   -1.6558   12.5461  -10.1051 H   0  0  0  0  0  0  0  0  0  0  0  0
   -2.1418   14.8314   -9.9056 H   0  0  0  0  0  0  0  0  0  0  0  0
   -1.3273   14.8503  -11.5065 H   0  0  0  0  0  0  0  0  0  0  0  0
   -3.9292   11.6343  -11.3361 H   0  0  0  0  0  0  0  0  0  0  0  0
   -4.0052   12.5329   -9.7825 H   0  0  0  0  0  0  0  0  0  0  0  0
   -1.6986   11.5246  -12.1863 H   0  0  0  0  0  0  0  0  0  0  0  0
   -3.9654   15.7526  -11.0614 H   0  0  0  0  0  0  0  0  0  0  0  0
   -3.3451   15.2065  -12.6563 H   0  0  0  0  0  0  0  0  0  0  0  0
   -8.1726   10.1006  -13.8930 H   0  0  0  0  0  0  0  0  0  0  0  0
   -6.0607   12.2852   -9.8870 H   0  0  0  0  0  0  0  0  0  0  0  0
   -6.4002   14.1748  -13.6682 H   0  0  0  0  0  0  0  0  0  0  0  0
   -8.0295    9.6121   -7.2551 H   0  0  0  0  0  0  0  0  0  0  0  0
   -4.8892    8.7741   -8.4833 H   0  0  0  0  0  0  0  0  0  0  0  0
   -2.4600   12.0040   -7.0537 H   0  0  0  0  0  0  0  0  0  0  0  0
   -4.5836   11.8682   -5.9134 H   0  0  0  0  0  0  0  0  0  0  0  0
   -2.6581    9.7501   -8.0474 H   0  0  0  0  0  0  0  0  0  0  0  0
   -6.3717   12.4489   -7.8389 H   0  0  0  0  0  0  0  0  0  0  0  0
   -6.3685   11.7163   -6.1988 H   0  0  0  0  0  0  0  0  0  0  0  0
   -5.4700   14.1039   -6.1424 H   0  0  0  0  0  0  0  0  0  0  0  0
   -3.9148   13.6392   -5.3732 H   0  0  0  0  0  0  0  0  0  0  0  0
   -3.9239   14.3505   -7.0227 H   0  0  0  0  0  0  0  0  0  0  0  0
  1  2  1  0  0  0  0
  1  3  1  0  0  0  0
  1  4  1  0  0  0  0
  2  5  1  0  0  0  0
  3  6  1  0  0  0  0
  5  6  1  0  0  0  0
  6 12  1  0  0  0  0
  7  8  1  0  0  0  0
  7 10  1  0  0  0  0
  7 12  2  0  0  0  0
  8  9  1  0  0  0  0
  8 11  2  0  0  0  0
  9 15  2  0  0  0  0
 10 14  2  0  0  0  0
 12 13  1  0  0  0  0
 14 15  1  0  0  0  0
 14 18  1  0  0  0  0
 15 16  1  0  0  0  0
 16 17  2  0  0  0  0
 17 18  1  0  0  0  0
 18 19  2  0  0  0  0
 19 20  1  0  0  0  0
 20 21  2  0  0  0  0
 20 25  1  0  0  0  0
 21 24  1  0  0  0  0
 22 23  1  0  0  0  0
 22 24  2  0  0  0  0
 23 25  1  0  0  0  0
 23 26  1  0  0  0  0
  1 27  1  0  0  0  0
  2 28  1  0  0  0  0
  2 29  1  0  0  0  0
  3 30  1  0  0  0  0
  3 31  1  0  0  0  0
  4 32  1  0  0  0  0
  5 33  1  0  0  0  0
  5 34  1  0  0  0  0
  9 35  1  0  0  0  0
 10 36  1  0  0  0  0
 13 37  1  0  0  0  0
 19 38  1  0  0  0  0
 21 39  1  0  0  0  0
 22 40  1  0  0  0  0
 23 41  1  0  0  0  0
 24 42  1  0  0  0  0
 25 43  1  0  0  0  0
 25 44  1  0  0  0  0
 26 45  1  0  0  0  0
 26 46  1  0  0  0  0
 26 47  1  0  0  0  0
M  END
> <Name>
13

> <IC50[uM]>
0.006

$$$$
13
  -OEChem-05192314333D
 Structure written by MMmdl.
 47 50  0     1  0  0  0  0  0999 V2000
   -2.2088   12.9419  -10.9697 C   0  0  1  0  0  0  0  0  0  0  0  0
   -2.1904   14.4671  -10.9424 C   0  0  0  0  0  0  0  0  0  0  0  0
   -3.6992   12.5876  -10.8377 C   0  0  0  0  0  0  0  0  0  0  0  0
   -1.6826   12.4744  -12.1795 O   0  0  0  0  0  0  0  0  0  0  0  0
   -3.5107   14.9139  -11.6089 C   0  0  0  0  0  0  0  0  0  0  0  0
   -4.3443   13.7200  -11.5243 N   0  0  0  0  0  0  0  0  0  0  0  0
   -6.3525   12.3601  -12.0338 C   0  0  0  0  0  0  0  0  0  0  0  0
   -6.9727   11.7556  -13.1375 C   0  0  0  0  0  0  0  0  0  0  0  0
   -7.7097   10.5633  -13.0339 C   0  0  0  0  0  0  0  0  0  0  0  0
   -6.5001   11.8056  -10.7491 C   0  0  0  0  0  0  0  0  0  0  0  0
   -6.8506   12.3073  -14.3824 O   0  0  0  0  0  0  0  0  0  0  0  0
   -5.5377   13.6382  -12.2001 C   0  0  0  0  0  0  0  0  0  0  0  0
   -5.9500   14.5444  -12.9177 O   0  0  0  0  0  0  0  0  0  0  0  0
   -7.2308   10.6159  -10.6131 C   0  0  0  0  0  0  0  0  0  0  0  0
   -7.8083   10.0113  -11.7524 C   0  0  0  0  0  0  0  0  0  0  0  0
   -8.4200    8.8675  -11.2880 N   0  0  0  0  0  0  0  0  0  0  0  0
   -8.2847    8.7400   -9.9757 N   0  0  0  0  0  0  0  0  0  0  0  0
   -7.6047    9.7473   -9.5145 C   0  0  0  0  0  0  0  0  0  0  0  0
   -7.3264    9.8951   -8.0245 C   0  0  0  0  0  0  0  0  0  0  0  0
   -5.9604   10.4805   -7.7353 C   0  0  0  0  0  0  0  0  0  0  0  0
   -4.8075    9.7596   -8.0491 C   0  0  0  0  0  0  0  0  0  0  0  0
   -3.4358   11.5809   -7.2415 C   0  0  0  0  0  0  0  0  0  0  0  0
   -4.5835   12.3061   -6.9225 C   0  0  0  0  0  0  0  0  0  0  0  0
   -3.5481   10.3107   -7.8024 C   0  0  0  0  0  0  0  0  0  0  0  0
   -5.8471   11.7541   -7.1666 C   0  0  0  0  0  0  0  0  0  0  0  0
   -4.4650   13.6954   -6.3241 C   0  0  0  0  0  0  0  0  0  0  0  0
   -1.6558   12.5461  -10.1051 H   0  0  0  0  0  0  0  0  0  0  0  0
   -2.1418   14.8314   -9.9056 H   0  0  0  0  0  0  0  0  0  0  0  0
   -1.3273   14.8503  -11.5065 H   0  0  0  0  0  0  0  0  0  0  0  0
   -3.9292   11.6343  -11.3361 H   0  0  0  0  0  0  0  0  0  0  0  0
   -4.0052   12.5329   -9.7825 H   0  0  0  0  0  0  0  0  0  0  0  0
   -1.6986   11.5246  -12.1863 H   0  0  0  0  0  0  0  0  0  0  0  0
   -3.9654   15.7526  -11.0614 H   0  0  0  0  0  0  0  0  0  0  0  0
   -3.3451   15.2065  -12.6563 H   0  0  0  0  0  0  0  0  0  0  0  0
   -8.1726   10.1006  -13.8930 H   0  0  0  0  0  0  0  0  0  0  0  0
   -6.0607   12.2852   -9.8870 H   0  0  0  0  0  0  0  0  0  0  0  0
   -6.4002   14.1748  -13.6682 H   0  0  0  0  0  0  0  0  0  0  0  0
   -8.0295    9.6121   -7.2551 H   0  0  0  0  0  0  0  0  0  0  0  0
   -5.9749   10.0291   -6.7323 H   0  0  0  0  0  0  0  0  0  0  0  0
   -4.8892    8.7741   -8.4833 H   0  0  0  0  0  0  0  0  0  0  0  0
   -2.4600   12.0040   -7.0537 H   0  0  0  0  0  0  0  0  0  0  0  0
   -2.6581    9.7501   -8.0474 H   0  0  0  0  0  0  0  0  0  0  0  0
   -6.3717   12.4489   -7.8389 H   0  0  0  0  0  0  0  0  0  0  0  0
   -6.3685   11.7163   -6.1988 H   0  0  0  0  0  0  0  0  0  0  0  0
   -5.4700   14.1039   -6.1424 H   0  0  0  0  0  0  0  0  0  0  0  0
   -3.9148   13.6392   -5.3732 H   0  0  0  0  0  0  0  0  0  0  0  0
   -3.9239   14.3505   -7.0227 H   0  0  0  0  0  0  0  0  0  0  0  0
  1  2  1  0  0  0  0
  1  3  1  0  0  0  0
  1  4  1  0  0  0  0
  2  5  1  0  0  0  0
  3  6  1  0  0  0  0
  5  6  1  0  0  0  0
  6 12  1  0  0  0  0
  7  8  1  0  0  0  0
  7 10  1  0  0  0  0
  7 12  2  0  0  0  0
  8  9  1  0  0  0  0
  8 11  2  0  0  0  0
  9 15  2  0  0  0  0
 10 14  2  0  0  0  0
 12 13  1  0  0  0  0
 14 15  1  0  0  0  0
 14 18  1  0  0  0  0
 15 16  1  0  0  0  0
 16 17  2  0  0  0  0
 17 18  1  0  0  0  0
 18 19  2  0  0  0  0
 19 20  1  0  0  0  0
 20 21  1  0  0  0  0
 20 25  1  0  0  0  0
 21 24  2  0  0  0  0
 22 23  2  0  0  0  0
 22 24  1  0  0  0  0
 23 25  1  0  0  0  0
 23 26  1  0  0  0  0
  1 27  1  0  0  0  0
  2 28  1  0  0  0  0
  2 29  1  0  0  0  0
  3 30  1  0  0  0  0
  3 31  1  0  0  0  0
  4 32  1  0  0  0  0
  5 33  1  0  0  0  0
  5 34  1  0  0  0  0
  9 35  1  0  0  0  0
 10 36  1  0  0  0  0
 13 37  1  0  0  0  0
 19 38  1  0  0  0  0
 20 39  1  0  0  0  0
 21 40  1  0  0  0  0
 22 41  1  0  0  0  0
 24 42  1  0  0  0  0
 25 43  1  0  0  0  0
 25 44  1  0  0  0  0
 26 45  1  0  0  0  0
 26 46  1  0  0  0  0
 26 47  1  0  0  0  0
M  END
> <Name>
13

> <IC50[uM]>
0.006

$$$$
13
  -OEChem-05192314333D
 Structure written by MMmdl.
 47 50  0     1  0  0  0  0  0999 V2000
   -2.2088   12.9419  -10.9697 C   0  0  1  0  0  0  0  0  0  0  0  0
   -2.1904   14.4671  -10.9424 C   0  0  0  0  0  0  0  0  0  0  0  0
   -3.6992   12.5876  -10.8377 C   0  0  0  0  0  0  0  0  0  0  0  0
   -1.6826   12.4744  -12.1795 O   0  0  0  0  0  0  0  0  0  0  0  0
   -3.5107   14.9139  -11.6089 C   0  0  0  0  0  0  0  0  0  0  0  0
   -4.3443   13.7200  -11.5243 N   0  0  0  0  0  0  0  0  0  0  0  0
   -6.3525   12.3601  -12.0338 C   0  0  0  0  0  0  0  0  0  0  0  0
   -6.9727   11.7556  -13.1375 C   0  0  0  0  0  0  0  0  0  0  0  0
   -7.7097   10.5633  -13.0339 C   0  0  0  0  0  0  0  0  0  0  0  0
   -6.5001   11.8056  -10.7491 C   0  0  0  0  0  0  0  0  0  0  0  0
   -6.8506   12.3073  -14.3824 O   0  0  0  0  0  0  0  0  0  0  0  0
   -5.5377   13.6382  -12.2001 C   0  0  0  0  0  0  0  0  0  0  0  0
   -5.9500   14.5444  -12.9177 O   0  0  0  0  0  0  0  0  0  0  0  0
   -7.2308   10.6159  -10.6131 C   0  0  0  0  0  0  0  0  0  0  0  0
   -7.8083   10.0113  -11.7524 C   0  0  0  0  0  0  0  0  0  0  0  0
   -8.4200    8.8675  -11.2880 N   0  0  0  0  0  0  0  0  0  0  0  0
   -8.2847    8.7400   -9.9757 N   0  0  0  0  0  0  0  0  0  0  0  0
   -7.6047    9.7473   -9.5145 C   0  0  0  0  0  0  0  0  0  0  0  0
   -7.3264    9.8951   -8.0245 C   0  0  0  0  0  0  0  0  0  0  0  0
   -5.9604   10.4805   -7.7353 C   0  0  0  0  0  0  0  0  0  0  0  0
   -4.8075    9.7596   -8.0491 C   0  0  0  0  0  0  0  0  0  0  0  0
   -3.4358   11.5809   -7.2415 C   0  0  0  0  0  0  0  0  0  0  0  0
   -4.5835   12.3061   -6.9225 C   0  0  0  0  0  0  0  0  0  0  0  0
   -3.5481   10.3107   -7.8024 C   0  0  0  0  0  0  0  0  0  0  0  0
   -5.8471   11.7541   -7.1666 C   0  0  0  0  0  0  0  0  0  0  0  0
   -4.4650   13.6954   -6.3241 C   0  0  0  0  0  0  0  0  0  0  0  0
   -1.6558   12.5461  -10.1051 H   0  0  0  0  0  0  0  0  0  0  0  0
   -2.1418   14.8314   -9.9056 H   0  0  0  0  0  0  0  0  0  0  0  0
   -1.3273   14.8503  -11.5065 H   0  0  0  0  0  0  0  0  0  0  0  0
   -3.9292   11.6343  -11.3361 H   0  0  0  0  0  0  0  0  0  0  0  0
   -4.0052   12.5329   -9.7825 H   0  0  0  0  0  0  0  0  0  0  0  0
   -1.6986   11.5246  -12.1863 H   0  0  0  0  0  0  0  0  0  0  0  0
   -3.9654   15.7526  -11.0614 H   0  0  0  0  0  0  0  0  0  0  0  0
   -3.3451   15.2065  -12.6563 H   0  0  0  0  0  0  0  0  0  0  0  0
   -8.1726   10.1006  -13.8930 H   0  0  0  0  0  0  0  0  0  0  0  0
   -6.0607   12.2852   -9.8870 H   0  0  0  0  0  0  0  0  0  0  0  0
   -6.4002   14.1748  -13.6682 H   0  0  0  0  0  0  0  0  0  0  0  0
   -6.6702    9.1804   -9.6379 H   0  0  0  0  0  0  0  0  0  0  0  0
   -8.0295    9.6121   -7.2551 H   0  0  0  0  0  0  0  0  0  0  0  0
   -4.8892    8.7741   -8.4833 H   0  0  0  0  0  0  0  0  0  0  0  0
   -2.4600   12.0040   -7.0537 H   0  0  0  0  0  0  0  0  0  0  0  0
   -2.6581    9.7501   -8.0474 H   0  0  0  0  0  0  0  0  0  0  0  0
   -6.3717   12.4489   -7.8389 H   0  0  0  0  0  0  0  0  0  0  0  0
   -6.3685   11.7163   -6.1988 H   0  0  0  0  0  0  0  0  0  0  0  0
   -5.4700   14.1039   -6.1424 H   0  0  0  0  0  0  0  0  0  0  0  0
   -3.9148   13.6392   -5.3732 H   0  0  0  0  0  0  0  0  0  0  0  0
   -3.9239   14.3505   -7.0227 H   0  0  0  0  0  0  0  0  0  0  0  0
  1  2  1  0  0  0  0
  1  3  1  0  0  0  0
  1  4  1  0  0  0  0
  2  5  1  0  0  0  0
  3  6  1  0  0  0  0
  5  6  1  0  0  0  0
  6 12  1  0  0  0  0
  7  8  1  0  0  0  0
  7 10  1  0  0  0  0
  7 12  2  0  0  0  0
  8  9  1  0  0  0  0
  8 11  2  0  0  0  0
  9 15  2  0  0  0  0
 10 14  2  0  0  0  0
 12 13  1  0  0  0  0
 14 15  1  0  0  0  0
 14 18  1  0  0  0  0
 15 16  1  0  0  0  0
 16 17  2  0  0  0  0
 17 18  1  0  0  0  0
 18 19  1  0  0  0  0
 19 20  2  0  0  0  0
 20 21  1  0  0  0  0
 20 25  1  0  0  0  0
 21 24  2  0  0  0  0
 22 23  2  0  0  0  0
 22 24  1  0  0  0  0
 23 25  1  0  0  0  0
 23 26  1  0  0  0  0
  1 27  1  0  0  0  0
  2 28  1  0  0  0  0
  2 29  1  0  0  0  0
  3 30  1  0  0  0  0
  3 31  1  0  0  0  0
  4 32  1  0  0  0  0
  5 33  1  0  0  0  0
  5 34  1  0  0  0  0
  9 35  1  0  0  0  0
 10 36  1  0  0  0  0
 13 37  1  0  0  0  0
 18 38  1  0  0  0  0
 19 39  1  0  0  0  0
 21 40  1  0  0  0  0
 22 41  1  0  0  0  0
 24 42  1  0  0  0  0
 25 43  1  0  0  0  0
 25 44  1  0  0  0  0
 26 45  1  0  0  0  0
 26 46  1  0  0  0  0
 26 47  1  0  0  0  0
M  END
> <Name>
13

> <IC50[uM]>
0.006

$$$$
13
  -OEChem-05192314333D
 Structure written by MMmdl.
 47 50  0     1  0  0  0  0  0999 V2000
   -2.2088   12.9419  -10.9697 C   0  0  1  0  0  0  0  0  0  0  0  0
   -2.1904   14.4671  -10.9424 C   0  0  0  0  0  0  0  0  0  0  0  0
   -3.6992   12.5876  -10.8377 C   0  0  0  0  0  0  0  0  0  0  0  0
   -1.6826   12.4744  -12.1795 O   0  0  0  0  0  0  0  0  0  0  0  0
   -3.5107   14.9139  -11.6089 C   0  0  0  0  0  0  0  0  0  0  0  0
   -4.3443   13.7200  -11.5243 N   0  0  0  0  0  0  0  0  0  0  0  0
   -6.3525   12.3601  -12.0338 C   0  0  0  0  0  0  0  0  0  0  0  0
   -6.9727   11.7556  -13.1375 C   0  0  0  0  0  0  0  0  0  0  0  0
   -7.7097   10.5633  -13.0339 C   0  0  0  0  0  0  0  0  0  0  0  0
   -6.5001   11.8056  -10.7491 C   0  0  0  0  0  0  0  0  0  0  0  0
   -6.8506   12.3073  -14.3824 O   0  0  0  0  0  0  0  0  0  0  0  0
   -5.5377   13.6382  -12.2001 C   0  0  0  0  0  0  0  0  0  0  0  0
   -5.9500   14.5444  -12.9177 O   0  0  0  0  0  0  0  0  0  0  0  0
   -7.2308   10.6159  -10.6131 C   0  0  0  0  0  0  0  0  0  0  0  0
   -7.8083   10.0113  -11.7524 C   0  0  0  0  0  0  0  0  0  0  0  0
   -8.4200    8.8675  -11.2880 N   0  0  0  0  0  0  0  0  0  0  0  0
   -8.2847    8.7400   -9.9757 N   0  0  0  0  0  0  0  0  0  0  0  0
   -7.6047    9.7473   -9.5145 C   0  0  0  0  0  0  0  0  0  0  0  0
   -7.3264    9.8951   -8.0245 C   0  0  0  0  0  0  0  0  0  0  0  0
   -5.9604   10.4805   -7.7353 C   0  0  0  0  0  0  0  0  0  0  0  0
   -4.8075    9.7596   -8.0491 C   0  0  0  0  0  0  0  0  0  0  0  0
   -3.4358   11.5809   -7.2415 C   0  0  0  0  0  0  0  0  0  0  0  0
   -4.5835   12.3061   -6.9225 C   0  0  0  0  0  0  0  0  0  0  0  0
   -3.5481   10.3107   -7.8024 C   0  0  0  0  0  0  0  0  0  0  0  0
   -5.8471   11.7541   -7.1666 C   0  0  0  0  0  0  0  0  0  0  0  0
   -4.4650   13.6954   -6.3241 C   0  0  0  0  0  0  0  0  0  0  0  0
   -1.6558   12.5461  -10.1051 H   0  0  0  0  0  0  0  0  0  0  0  0
   -2.1418   14.8314   -9.9056 H   0  0  0  0  0  0  0  0  0  0  0  0
   -1.3273   14.8503  -11.5065 H   0  0  0  0  0  0  0  0  0  0  0  0
   -3.9292   11.6343  -11.3361 H   0  0  0  0  0  0  0  0  0  0  0  0
   -4.0052   12.5329   -9.7825 H   0  0  0  0  0  0  0  0  0  0  0  0
   -1.6986   11.5246  -12.1863 H   0  0  0  0  0  0  0  0  0  0  0  0
   -3.9654   15.7526  -11.0614 H   0  0  0  0  0  0  0  0  0  0  0  0
   -3.3451   15.2065  -12.6563 H   0  0  0  0  0  0  0  0  0  0  0  0
   -8.1726   10.1006  -13.8930 H   0  0  0  0  0  0  0  0  0  0  0  0
   -6.0607   12.2852   -9.8870 H   0  0  0  0  0  0  0  0  0  0  0  0
   -6.4002   14.1748  -13.6682 H   0  0  0  0  0  0  0  0  0  0  0  0
   -8.0295    9.6121   -7.2551 H   0  0  0  0  0  0  0  0  0  0  0  0
   -4.8892    8.7741   -8.4833 H   0  0  0  0  0  0  0  0  0  0  0  0
   -2.4600   12.0040   -7.0537 H   0  0  0  0  0  0  0  0  0  0  0  0
   -3.0270    9.6184   -7.1248 H   0  0  0  0  0  0  0  0  0  0  0  0
   -3.0225   10.3437   -8.7681 H   0  0  0  0  0  0  0  0  0  0  0  0
   -6.3717   12.4489   -7.8389 H   0  0  0  0  0  0  0  0  0  0  0  0
   -6.3685   11.7163   -6.1988 H   0  0  0  0  0  0  0  0  0  0  0  0
   -5.4700   14.1039   -6.1424 H   0  0  0  0  0  0  0  0  0  0  0  0
   -3.9148   13.6392   -5.3732 H   0  0  0  0  0  0  0  0  0  0  0  0
   -3.9239   14.3505   -7.0227 H   0  0  0  0  0  0  0  0  0  0  0  0
  1  2  1  0  0  0  0
  1  3  1  0  0  0  0
  1  4  1  0  0  0  0
  2  5  1  0  0  0  0
  3  6  1  0  0  0  0
  5  6  1  0  0  0  0
  6 12  1  0  0  0  0
  7  8  1  0  0  0  0
  7 10  1  0  0  0  0
  7 12  2  0  0  0  0
  8  9  1  0  0  0  0
  8 11  2  0  0  0  0
  9 15  2  0  0  0  0
 10 14  2  0  0  0  0
 12 13  1  0  0  0  0
 14 15  1  0  0  0  0
 14 18  1  0  0  0  0
 15 16  1  0  0  0  0
 16 17  2  0  0  0  0
 17 18  1  0  0  0  0
 18 19  2  0  0  0  0
 19 20  1  0  0  0  0
 20 21  2  0  0  0  0
 20 25  1  0  0  0  0
 21 24  1  0  0  0  0
 22 23  2  0  0  0  0
 22 24  1  0  0  0  0
 23 25  1  0  0  0  0
 23 26  1  0  0  0  0
  1 27  1  0  0  0  0
  2 28  1  0  0  0  0
  2 29  1  0  0  0  0
  3 30  1  0  0  0  0
  3 31  1  0  0  0  0
  4 32  1  0  0  0  0
  5 33  1  0  0  0  0
  5 34  1  0  0  0  0
  9 35  1  0  0  0  0
 10 36  1  0  0  0  0
 13 37  1  0  0  0  0
 19 38  1  0  0  0  0
 21 39  1  0  0  0  0
 22 40  1  0  0  0  0
 24 41  1  0  0  0  0
 24 42  1  0  0  0  0
 25 43  1  0  0  0  0
 25 44  1  0  0  0  0
 26 45  1  0  0  0  0
 26 46  1  0  0  0  0
 26 47  1  0  0  0  0
M  END
> <Name>
13

> <IC50[uM]>
0.006

$$$$
13
  -OEChem-05192314333D
 Structure written by MMmdl.
 47 50  0     1  0  0  0  0  0999 V2000
   -2.2088   12.9419  -10.9697 C   0  0  1  0  0  0  0  0  0  0  0  0
   -2.1904   14.4671  -10.9424 C   0  0  0  0  0  0  0  0  0  0  0  0
   -3.6992   12.5876  -10.8377 C   0  0  0  0  0  0  0  0  0  0  0  0
   -1.6826   12.4744  -12.1795 O   0  0  0  0  0  0  0  0  0  0  0  0
   -3.5107   14.9139  -11.6089 C   0  0  0  0  0  0  0  0  0  0  0  0
   -4.3443   13.7200  -11.5243 N   0  0  0  0  0  0  0  0  0  0  0  0
   -6.3525   12.3601  -12.0338 C   0  0  0  0  0  0  0  0  0  0  0  0
   -6.9727   11.7556  -13.1375 C   0  0  0  0  0  0  0  0  0  0  0  0
   -7.7097   10.5633  -13.0339 C   0  0  0  0  0  0  0  0  0  0  0  0
   -6.5001   11.8056  -10.7491 C   0  0  0  0  0  0  0  0  0  0  0  0
   -6.8506   12.3073  -14.3824 O   0  0  0  0  0  0  0  0  0  0  0  0
   -5.5377   13.6382  -12.2001 C   0  0  0  0  0  0  0  0  0  0  0  0
   -5.9500   14.5444  -12.9177 O   0  0  0  0  0  0  0  0  0  0  0  0
   -7.2308   10.6159  -10.6131 C   0  0  0  0  0  0  0  0  0  0  0  0
   -7.8083   10.0113  -11.7524 C   0  0  0  0  0  0  0  0  0  0  0  0
   -8.4200    8.8675  -11.2880 N   0  0  0  0  0  0  0  0  0  0  0  0
   -8.2847    8.7400   -9.9757 N   0  0  0  0  0  0  0  0  0  0  0  0
   -7.6047    9.7473   -9.5145 C   0  0  0  0  0  0  0  0  0  0  0  0
   -7.3264    9.8951   -8.0245 C   0  0  0  0  0  0  0  0  0  0  0  0
   -5.9604   10.4805   -7.7353 C   0  0  0  0  0  0  0  0  0  0  0  0
   -4.8075    9.7596   -8.0491 C   0  0  0  0  0  0  0  0  0  0  0  0
   -3.4358   11.5809   -7.2415 C   0  0  0  0  0  0  0  0  0  0  0  0
   -4.5835   12.3061   -6.9225 C   0  0  0  0  0  0  0  0  0  0  0  0
   -3.5481   10.3107   -7.8024 C   0  0  0  0  0  0  0  0  0  0  0  0
   -5.8471   11.7541   -7.1666 C   0  0  0  0  0  0  0  0  0  0  0  0
   -4.4650   13.6954   -6.3241 C   0  0  0  0  0  0  0  0  0  0  0  0
   -1.6558   12.5461  -10.1051 H   0  0  0  0  0  0  0  0  0  0  0  0
   -2.1418   14.8314   -9.9056 H   0  0  0  0  0  0  0  0  0  0  0  0
   -1.3273   14.8503  -11.5065 H   0  0  0  0  0  0  0  0  0  0  0  0
   -3.9292   11.6343  -11.3361 H   0  0  0  0  0  0  0  0  0  0  0  0
   -4.0052   12.5329   -9.7825 H   0  0  0  0  0  0  0  0  0  0  0  0
   -1.6986   11.5246  -12.1863 H   0  0  0  0  0  0  0  0  0  0  0  0
   -3.9654   15.7526  -11.0614 H   0  0  0  0  0  0  0  0  0  0  0  0
   -3.3451   15.2065  -12.6563 H   0  0  0  0  0  0  0  0  0  0  0  0
   -8.1726   10.1006  -13.8930 H   0  0  0  0  0  0  0  0  0  0  0  0
   -5.4892   11.6119  -10.3610 H   0  0  0  0  0  0  0  0  0  0  0  0
   -6.9942   12.5634  -10.1232 H   0  0  0  0  0  0  0  0  0  0  0  0
   -6.4002   14.1748  -13.6682 H   0  0  0  0  0  0  0  0  0  0  0  0
   -8.0295    9.6121   -7.2551 H   0  0  0  0  0  0  0  0  0  0  0  0
   -4.8892    8.7741   -8.4833 H   0  0  0  0  0  0  0  0  0  0  0  0
   -2.4600   12.0040   -7.0537 H   0  0  0  0  0  0  0  0  0  0  0  0
   -2.6581    9.7501   -8.0474 H   0  0  0  0  0  0  0  0  0  0  0  0
   -6.3717   12.4489   -7.8389 H   0  0  0  0  0  0  0  0  0  0  0  0
   -6.3685   11.7163   -6.1988 H   0  0  0  0  0  0  0  0  0  0  0  0
   -5.4700   14.1039   -6.1424 H   0  0  0  0  0  0  0  0  0  0  0  0
   -3.9148   13.6392   -5.3732 H   0  0  0  0  0  0  0  0  0  0  0  0
   -3.9239   14.3505   -7.0227 H   0  0  0  0  0  0  0  0  0  0  0  0
  1  2  1  0  0  0  0
  1  3  1  0  0  0  0
  1  4  1  0  0  0  0
  2  5  1  0  0  0  0
  3  6  1  0  0  0  0
  5  6  1  0  0  0  0
  6 12  1  0  0  0  0
  7  8  1  0  0  0  0
  7 10  1  0  0  0  0
  7 12  2  0  0  0  0
  8  9  1  0  0  0  0
  8 11  2  0  0  0  0
  9 15  2  0  0  0  0
 10 14  1  0  0  0  0
 12 13  1  0  0  0  0
 14 15  1  0  0  0  0
 14 18  2  0  0  0  0
 15 16  1  0  0  0  0
 16 17  2  0  0  0  0
 17 18  1  0  0  0  0
 18 19  1  0  0  0  0
 19 20  2  0  0  0  0
 20 21  1  0  0  0  0
 20 25  1  0  0  0  0
 21 24  2  0  0  0  0
 22 23  2  0  0  0  0
 22 24  1  0  0  0  0
 23 25  1  0  0  0  0
 23 26  1  0  0  0  0
  1 27  1  0  0  0  0
  2 28  1  0  0  0  0
  2 29  1  0  0  0  0
  3 30  1  0  0  0  0
  3 31  1  0  0  0  0
  4 32  1  0  0  0  0
  5 33  1  0  0  0  0
  5 34  1  0  0  0  0
  9 35  1  0  0  0  0
 10 36  1  0  0  0  0
 10 37  1  0  0  0  0
 13 38  1  0  0  0  0
 19 39  1  0  0  0  0
 21 40  1  0  0  0  0
 22 41  1  0  0  0  0
 24 42  1  0  0  0  0
 25 43  1  0  0  0  0
 25 44  1  0  0  0  0
 26 45  1  0  0  0  0
 26 46  1  0  0  0  0
 26 47  1  0  0  0  0
M  END
> <Name>
13

> <IC50[uM]>
0.006

$$$$
13
  -OEChem-05192314333D
 Structure written by MMmdl.
 47 50  0     1  0  0  0  0  0999 V2000
   -2.2088   12.9419  -10.9697 C   0  0  1  0  0  0  0  0  0  0  0  0
   -2.1904   14.4671  -10.9424 C   0  0  0  0  0  0  0  0  0  0  0  0
   -3.6992   12.5876  -10.8377 C   0  0  0  0  0  0  0  0  0  0  0  0
   -1.6826   12.4744  -12.1795 O   0  0  0  0  0  0  0  0  0  0  0  0
   -3.5107   14.9139  -11.6089 C   0  0  0  0  0  0  0  0  0  0  0  0
   -4.3443   13.7200  -11.5243 N   0  0  0  0  0  0  0  0  0  0  0  0
   -6.3525   12.3601  -12.0338 C   0  0  0  0  0  0  0  0  0  0  0  0
   -6.9727   11.7556  -13.1375 C   0  0  0  0  0  0  0  0  0  0  0  0
   -7.7097   10.5633  -13.0339 C   0  0  0  0  0  0  0  0  0  0  0  0
   -6.5001   11.8056  -10.7491 C   0  0  0  0  0  0  0  0  0  0  0  0
   -6.8506   12.3073  -14.3824 O   0  0  0  0  0  0  0  0  0  0  0  0
   -5.5377   13.6382  -12.2001 C   0  0  0  0  0  0  0  0  0  0  0  0
   -5.9500   14.5444  -12.9177 O   0  0  0  0  0  0  0  0  0  0  0  0
   -7.2308   10.6159  -10.6131 C   0  0  0  0  0  0  0  0  0  0  0  0
   -7.8083   10.0113  -11.7524 C   0  0  0  0  0  0  0  0  0  0  0  0
   -8.4200    8.8675  -11.2880 N   0  0  0  0  0  0  0  0  0  0  0  0
   -8.2847    8.7400   -9.9757 N   0  0  0  0  0  0  0  0  0  0  0  0
   -7.6047    9.7473   -9.5145 C   0  0  0  0  0  0  0  0  0  0  0  0
   -7.3264    9.8951   -8.0245 C   0  0  0  0  0  0  0  0  0  0  0  0
   -5.9604   10.4805   -7.7353 C   0  0  0  0  0  0  0  0  0  0  0  0
   -4.8075    9.7596   -8.0491 C   0  0  0  0  0  0  0  0  0  0  0  0
   -3.4358   11.5809   -7.2415 C   0  0  0  0  0  0  0  0  0  0  0  0
   -4.5835   12.3061   -6.9225 C   0  0  0  0  0  0  0  0  0  0  0  0
   -3.5481   10.3107   -7.8024 C   0  0  0  0  0  0  0  0  0  0  0  0
   -5.8471   11.7541   -7.1666 C   0  0  0  0  0  0  0  0  0  0  0  0
   -4.4650   13.6954   -6.3241 C   0  0  0  0  0  0  0  0  0  0  0  0
   -1.6558   12.5461  -10.1051 H   0  0  0  0  0  0  0  0  0  0  0  0
   -2.1418   14.8314   -9.9056 H   0  0  0  0  0  0  0  0  0  0  0  0
   -1.3273   14.8503  -11.5065 H   0  0  0  0  0  0  0  0  0  0  0  0
   -3.9292   11.6343  -11.3361 H   0  0  0  0  0  0  0  0  0  0  0  0
   -4.0052   12.5329   -9.7825 H   0  0  0  0  0  0  0  0  0  0  0  0
   -1.6986   11.5246  -12.1863 H   0  0  0  0  0  0  0  0  0  0  0  0
   -3.9654   15.7526  -11.0614 H   0  0  0  0  0  0  0  0  0  0  0  0
   -3.3451   15.2065  -12.6563 H   0  0  0  0  0  0  0  0  0  0  0  0
   -8.1726   10.1006  -13.8930 H   0  0  0  0  0  0  0  0  0  0  0  0
   -6.0607   12.2852   -9.8870 H   0  0  0  0  0  0  0  0  0  0  0  0
   -6.0573   14.0826  -11.3384 H   0  0  0  0  0  0  0  0  0  0  0  0
   -6.4002   14.1748  -13.6682 H   0  0  0  0  0  0  0  0  0  0  0  0
   -8.0295    9.6121   -7.2551 H   0  0  0  0  0  0  0  0  0  0  0  0
   -4.8582    8.8181   -7.4825 H   0  0  0  0  0  0  0  0  0  0  0  0
   -4.8529    9.5421   -9.1264 H   0  0  0  0  0  0  0  0  0  0  0  0
   -2.4600   12.0040   -7.0537 H   0  0  0  0  0  0  0  0  0  0  0  0
   -2.6581    9.7501   -8.0474 H   0  0  0  0  0  0  0  0  0  0  0  0
   -6.7366   12.3128   -6.9153 H   0  0  0  0  0  0  0  0  0  0  0  0
   -5.4700   14.1039   -6.1424 H   0  0  0  0  0  0  0  0  0  0  0  0
   -3.9148   13.6392   -5.3732 H   0  0  0  0  0  0  0  0  0  0  0  0
   -3.9239   14.3505   -7.0227 H   0  0  0  0  0  0  0  0  0  0  0  0
  1  2  1  0  0  0  0
  1  3  1  0  0  0  0
  1  4  1  0  0  0  0
  2  5  1  0  0  0  0
  3  6  1  0  0  0  0
  5  6  1  0  0  0  0
  6 12  1  0  0  0  0
  7  8  1  0  0  0  0
  7 10  2  0  0  0  0
  7 12  1  0  0  0  0
  8  9  1  0  0  0  0
  8 11  2  0  0  0  0
  9 15  2  0  0  0  0
 10 14  1  0  0  0  0
 12 13  1  0  0  0  0
 14 15  1  0  0  0  0
 14 18  2  0  0  0  0
 15 16  1  0  0  0  0
 16 17  2  0  0  0  0
 17 18  1  0  0  0  0
 18 19  1  0  0  0  0
 19 20  2  0  0  0  0
 20 21  1  0  0  0  0
 20 25  1  0  0  0  0
 21 24  1  0  0  0  0
 22 23  1  0  0  0  0
 22 24  2  0  0  0  0
 23 25  2  0  0  0  0
 23 26  1  0  0  0  0
  1 27  1  0  0  0  0
  2 28  1  0  0  0  0
  2 29  1  0  0  0  0
  3 30  1  0  0  0  0
  3 31  1  0  0  0  0
  4 32  1  0  0  0  0
  5 33  1  0  0  0  0
  5 34  1  0  0  0  0
  9 35  1  0  0  0  0
 10 36  1  0  0  0  0
 12 37  1  0  0  0  0
 13 38  1  0  0  0  0
 19 39  1  0  0  0  0
 21 40  1  0  0  0  0
 21 41  1  0  0  0  0
 22 42  1  0  0  0  0
 24 43  1  0  0  0  0
 25 44  1  0  0  0  0
 26 45  1  0  0  0  0
 26 46  1  0  0  0  0
 26 47  1  0  0  0  0
M  END
> <Name>
13

> <IC50[uM]>
0.006

$$$$
13
  -OEChem-05192314333D
 Structure written by MMmdl.
 47 50  0     1  0  0  0  0  0999 V2000
   -2.2088   12.9419  -10.9697 C   0  0  1  0  0  0  0  0  0  0  0  0
   -2.1904   14.4671  -10.9424 C   0  0  0  0  0  0  0  0  0  0  0  0
   -3.6992   12.5876  -10.8377 C   0  0  0  0  0  0  0  0  0  0  0  0
   -1.6826   12.4744  -12.1795 O   0  0  0  0  0  0  0  0  0  0  0  0
   -3.5107   14.9139  -11.6089 C   0  0  0  0  0  0  0  0  0  0  0  0
   -4.3443   13.7200  -11.5243 N   0  0  0  0  0  0  0  0  0  0  0  0
   -6.3525   12.3601  -12.0338 C   0  0  0  0  0  0  0  0  0  0  0  0
   -6.9727   11.7556  -13.1375 C   0  0  0  0  0  0  0  0  0  0  0  0
   -7.7097   10.5633  -13.0339 C   0  0  0  0  0  0  0  0  0  0  0  0
   -6.5001   11.8056  -10.7491 C   0  0  0  0  0  0  0  0  0  0  0  0
   -6.8506   12.3073  -14.3824 O   0  0  0  0  0  0  0  0  0  0  0  0
   -5.5377   13.6382  -12.2001 C   0  0  0  0  0  0  0  0  0  0  0  0
   -5.9500   14.5444  -12.9177 O   0  0  0  0  0  0  0  0  0  0  0  0
   -7.2308   10.6159  -10.6131 C   0  0  0  0  0  0  0  0  0  0  0  0
   -7.8083   10.0113  -11.7524 C   0  0  0  0  0  0  0  0  0  0  0  0
   -8.4200    8.8675  -11.2880 N   0  0  0  0  0  0  0  0  0  0  0  0
   -8.2847    8.7400   -9.9757 N   0  0  0  0  0  0  0  0  0  0  0  0
   -7.6047    9.7473   -9.5145 C   0  0  0  0  0  0  0  0  0  0  0  0
   -7.3264    9.8951   -8.0245 C   0  0  0  0  0  0  0  0  0  0  0  0
   -5.9604   10.4805   -7.7353 C   0  0  0  0  0  0  0  0  0  0  0  0
   -4.8075    9.7596   -8.0491 C   0  0  0  0  0  0  0  0  0  0  0  0
   -3.4358   11.5809   -7.2415 C   0  0  0  0  0  0  0  0  0  0  0  0
   -4.5835   12.3061   -6.9225 C   0  0  0  0  0  0  0  0  0  0  0  0
   -3.5481   10.3107   -7.8024 C   0  0  0  0  0  0  0  0  0  0  0  0
   -5.8471   11.7541   -7.1666 C   0  0  0  0  0  0  0  0  0  0  0  0
   -4.4650   13.6954   -6.3241 C   0  0  0  0  0  0  0  0  0  0  0  0
   -1.6558   12.5461  -10.1051 H   0  0  0  0  0  0  0  0  0  0  0  0
   -2.1418   14.8314   -9.9056 H   0  0  0  0  0  0  0  0  0  0  0  0
   -1.3273   14.8503  -11.5065 H   0  0  0  0  0  0  0  0  0  0  0  0
   -3.9292   11.6343  -11.3361 H   0  0  0  0  0  0  0  0  0  0  0  0
   -4.0052   12.5329   -9.7825 H   0  0  0  0  0  0  0  0  0  0  0  0
   -1.6986   11.5246  -12.1863 H   0  0  0  0  0  0  0  0  0  0  0  0
   -3.9654   15.7526  -11.0614 H   0  0  0  0  0  0  0  0  0  0  0  0
   -3.3451   15.2065  -12.6563 H   0  0  0  0  0  0  0  0  0  0  0  0
   -8.1726   10.1006  -13.8930 H   0  0  0  0  0  0  0  0  0  0  0  0
   -6.0607   12.2852   -9.8870 H   0  0  0  0  0  0  0  0  0  0  0  0
   -6.0573   14.0826  -11.3384 H   0  0  0  0  0  0  0  0  0  0  0  0
   -6.4002   14.1748  -13.6682 H   0  0  0  0  0  0  0  0  0  0  0  0
   -8.0295    9.6121   -7.2551 H   0  0  0  0  0  0  0  0  0  0  0  0
   -4.8892    8.7741   -8.4833 H   0  0  0  0  0  0  0  0  0  0  0  0
   -2.8612   12.1924   -7.9527 H   0  0  0  0  0  0  0  0  0  0  0  0
   -2.8628   11.4670   -6.3094 H   0  0  0  0  0  0  0  0  0  0  0  0
   -2.6581    9.7501   -8.0474 H   0  0  0  0  0  0  0  0  0  0  0  0
   -6.7366   12.3128   -6.9153 H   0  0  0  0  0  0  0  0  0  0  0  0
   -5.4700   14.1039   -6.1424 H   0  0  0  0  0  0  0  0  0  0  0  0
   -3.9148   13.6392   -5.3732 H   0  0  0  0  0  0  0  0  0  0  0  0
   -3.9239   14.3505   -7.0227 H   0  0  0  0  0  0  0  0  0  0  0  0
  1  2  1  0  0  0  0
  1  3  1  0  0  0  0
  1  4  1  0  0  0  0
  2  5  1  0  0  0  0
  3  6  1  0  0  0  0
  5  6  1  0  0  0  0
  6 12  1  0  0  0  0
  7  8  1  0  0  0  0
  7 10  2  0  0  0  0
  7 12  1  0  0  0  0
  8  9  1  0  0  0  0
  8 11  2  0  0  0  0
  9 15  2  0  0  0  0
 10 14  1  0  0  0  0
 12 13  1  0  0  0  0
 14 15  1  0  0  0  0
 14 18  2  0  0  0  0
 15 16  1  0  0  0  0
 16 17  2  0  0  0  0
 17 18  1  0  0  0  0
 18 19  1  0  0  0  0
 19 20  2  0  0  0  0
 20 21  1  0  0  0  0
 20 25  1  0  0  0  0
 21 24  2  0  0  0  0
 22 23  1  0  0  0  0
 22 24  1  0  0  0  0
 23 25  2  0  0  0  0
 23 26  1  0  0  0  0
  1 27  1  0  0  0  0
  2 28  1  0  0  0  0
  2 29  1  0  0  0  0
  3 30  1  0  0  0  0
  3 31  1  0  0  0  0
  4 32  1  0  0  0  0
  5 33  1  0  0  0  0
  5 34  1  0  0  0  0
  9 35  1  0  0  0  0
 10 36  1  0  0  0  0
 12 37  1  0  0  0  0
 13 38  1  0  0  0  0
 19 39  1  0  0  0  0
 21 40  1  0  0  0  0
 22 41  1  0  0  0  0
 22 42  1  0  0  0  0
 24 43  1  0  0  0  0
 25 44  1  0  0  0  0
 26 45  1  0  0  0  0
 26 46  1  0  0  0  0
 26 47  1  0  0  0  0
M  END
> <Name>
13

> <IC50[uM]>
0.006

$$$$
13
  -OEChem-05192314333D
 Structure written by MMmdl.
 47 50  0     1  0  0  0  0  0999 V2000
   -2.2088   12.9419  -10.9697 C   0  0  1  0  0  0  0  0  0  0  0  0
   -2.1904   14.4671  -10.9424 C   0  0  0  0  0  0  0  0  0  0  0  0
   -3.6992   12.5876  -10.8377 C   0  0  0  0  0  0  0  0  0  0  0  0
   -1.6826   12.4744  -12.1795 O   0  0  0  0  0  0  0  0  0  0  0  0
   -3.5107   14.9139  -11.6089 C   0  0  0  0  0  0  0  0  0  0  0  0
   -4.3443   13.7200  -11.5243 N   0  0  0  0  0  0  0  0  0  0  0  0
   -6.3525   12.3601  -12.0338 C   0  0  0  0  0  0  0  0  0  0  0  0
   -6.9727   11.7556  -13.1375 C   0  0  0  0  0  0  0  0  0  0  0  0
   -7.7097   10.5633  -13.0339 C   0  0  0  0  0  0  0  0  0  0  0  0
   -6.5001   11.8056  -10.7491 C   0  0  0  0  0  0  0  0  0  0  0  0
   -6.8506   12.3073  -14.3824 O   0  0  0  0  0  0  0  0  0  0  0  0
   -5.5377   13.6382  -12.2001 C   0  0  0  0  0  0  0  0  0  0  0  0
   -5.9500   14.5444  -12.9177 O   0  0  0  0  0  0  0  0  0  0  0  0
   -7.2308   10.6159  -10.6131 C   0  0  0  0  0  0  0  0  0  0  0  0
   -7.8083   10.0113  -11.7524 C   0  0  0  0  0  0  0  0  0  0  0  0
   -8.4200    8.8675  -11.2880 N   0  0  0  0  0  0  0  0  0  0  0  0
   -8.2847    8.7400   -9.9757 N   0  0  0  0  0  0  0  0  0  0  0  0
   -7.6047    9.7473   -9.5145 C   0  0  0  0  0  0  0  0  0  0  0  0
   -7.3264    9.8951   -8.0245 C   0  0  0  0  0  0  0  0  0  0  0  0
   -5.9604   10.4805   -7.7353 C   0  0  0  0  0  0  0  0  0  0  0  0
   -4.8075    9.7596   -8.0491 C   0  0  0  0  0  0  0  0  0  0  0  0
   -3.4358   11.5809   -7.2415 C   0  0  0  0  0  0  0  0  0  0  0  0
   -4.5835   12.3061   -6.9225 C   0  0  0  0  0  0  0  0  0  0  0  0
   -3.5481   10.3107   -7.8024 C   0  0  0  0  0  0  0  0  0  0  0  0
   -5.8471   11.7541   -7.1666 C   0  0  0  0  0  0  0  0  0  0  0  0
   -4.4650   13.6954   -6.3241 C   0  0  0  0  0  0  0  0  0  0  0  0
   -1.6558   12.5461  -10.1051 H   0  0  0  0  0  0  0  0  0  0  0  0
   -2.1418   14.8314   -9.9056 H   0  0  0  0  0  0  0  0  0  0  0  0
   -1.3273   14.8503  -11.5065 H   0  0  0  0  0  0  0  0  0  0  0  0
   -3.9292   11.6343  -11.3361 H   0  0  0  0  0  0  0  0  0  0  0  0
   -4.0052   12.5329   -9.7825 H   0  0  0  0  0  0  0  0  0  0  0  0
   -1.6986   11.5246  -12.1863 H   0  0  0  0  0  0  0  0  0  0  0  0
   -3.9654   15.7526  -11.0614 H   0  0  0  0  0  0  0  0  0  0  0  0
   -3.3451   15.2065  -12.6563 H   0  0  0  0  0  0  0  0  0  0  0  0
   -8.1726   10.1006  -13.8930 H   0  0  0  0  0  0  0  0  0  0  0  0
   -6.0607   12.2852   -9.8870 H   0  0  0  0  0  0  0  0  0  0  0  0
   -6.0573   14.0826  -11.3384 H   0  0  0  0  0  0  0  0  0  0  0  0
   -6.4002   14.1748  -13.6682 H   0  0  0  0  0  0  0  0  0  0  0  0
   -8.0295    9.6121   -7.2551 H   0  0  0  0  0  0  0  0  0  0  0  0
   -4.8892    8.7741   -8.4833 H   0  0  0  0  0  0  0  0  0  0  0  0
   -2.4600   12.0040   -7.0537 H   0  0  0  0  0  0  0  0  0  0  0  0
   -2.6581    9.7501   -8.0474 H   0  0  0  0  0  0  0  0  0  0  0  0
   -6.3717   12.4489   -7.8389 H   0  0  0  0  0  0  0  0  0  0  0  0
   -6.3685   11.7163   -6.1988 H   0  0  0  0  0  0  0  0  0  0  0  0
   -5.4700   14.1039   -6.1424 H   0  0  0  0  0  0  0  0  0  0  0  0
   -3.9148   13.6392   -5.3732 H   0  0  0  0  0  0  0  0  0  0  0  0
   -3.9239   14.3505   -7.0227 H   0  0  0  0  0  0  0  0  0  0  0  0
  1  2  1  0  0  0  0
  1  3  1  0  0  0  0
  1  4  1  0  0  0  0
  2  5  1  0  0  0  0
  3  6  1  0  0  0  0
  5  6  1  0  0  0  0
  6 12  1  0  0  0  0
  7  8  1  0  0  0  0
  7 10  2  0  0  0  0
  7 12  1  0  0  0  0
  8  9  1  0  0  0  0
  8 11  2  0  0  0  0
  9 15  2  0  0  0  0
 10 14  1  0  0  0  0
 12 13  1  0  0  0  0
 14 15  1  0  0  0  0
 14 18  2  0  0  0  0
 15 16  1  0  0  0  0
 16 17  2  0  0  0  0
 17 18  1  0  0  0  0
 18 19  1  0  0  0  0
 19 20  2  0  0  0  0
 20 21  1  0  0  0  0
 20 25  1  0  0  0  0
 21 24  2  0  0  0  0
 22 23  2  0  0  0  0
 22 24  1  0  0  0  0
 23 25  1  0  0  0  0
 23 26  1  0  0  0  0
  1 27  1  0  0  0  0
  2 28  1  0  0  0  0
  2 29  1  0  0  0  0
  3 30  1  0  0  0  0
  3 31  1  0  0  0  0
  4 32  1  0  0  0  0
  5 33  1  0  0  0  0
  5 34  1  0  0  0  0
  9 35  1  0  0  0  0
 10 36  1  0  0  0  0
 12 37  1  0  0  0  0
 13 38  1  0  0  0  0
 19 39  1  0  0  0  0
 21 40  1  0  0  0  0
 22 41  1  0  0  0  0
 24 42  1  0  0  0  0
 25 43  1  0  0  0  0
 25 44  1  0  0  0  0
 26 45  1  0  0  0  0
 26 46  1  0  0  0  0
 26 47  1  0  0  0  0
M  END
> <Name>
13

> <IC50[uM]>
0.006

$$$$
