19
  -OEChem-05192314333D
 Structure written by MMmdl.
 45 48  0     0  0  0  0  0  0999 V2000
   -6.3863   12.3686  -12.0106 C   0  0  0  0  0  0  0  0  0  0  0  0
   -6.5303   11.8179  -10.7351 C   0  0  0  0  0  0  0  0  0  0  0  0
   -7.7274   10.5747  -13.0322 C   0  0  0  0  0  0  0  0  0  0  0  0
   -6.9939   11.7717  -13.1290 C   0  0  0  0  0  0  0  0  0  0  0  0
   -7.8233   10.0108  -11.7572 C   0  0  0  0  0  0  0  0  0  0  0  0
   -7.2504   10.6246  -10.6026 C   0  0  0  0  0  0  0  0  0  0  0  0
   -7.6148    9.7488   -9.5126 C   0  0  0  0  0  0  0  0  0  0  0  0
   -8.2772    8.7301   -9.9866 N   0  0  0  0  0  0  0  0  0  0  0  0
   -8.4133    8.8585  -11.2996 N   0  0  0  0  0  0  0  0  0  0  0  0
   -7.3367    9.8906   -8.0265 C   0  0  0  0  0  0  0  0  0  0  0  0
   -4.3739   13.6178  -11.5022 N   0  0  0  0  0  0  0  0  0  0  0  0
   -3.4056   14.7196  -11.5963 C   0  0  0  0  0  0  0  0  0  0  0  0
   -5.5407   13.6198  -12.1903 C   0  0  0  0  0  0  0  0  0  0  0  0
   -5.8948   14.5296  -12.9394 O   0  0  0  0  0  0  0  0  0  0  0  0
   -5.9610   10.4852   -7.7361 C   0  0  0  0  0  0  0  0  0  0  0  0
   -4.8098    9.7648   -8.0558 C   0  0  0  0  0  0  0  0  0  0  0  0
   -3.5520   10.3132   -7.8064 C   0  0  0  0  0  0  0  0  0  0  0  0
   -3.4430   11.5871   -7.2363 C   0  0  0  0  0  0  0  0  0  0  0  0
   -4.5944   12.3027   -6.9144 C   0  0  0  0  0  0  0  0  0  0  0  0
   -5.8504   11.7539   -7.1603 C   0  0  0  0  0  0  0  0  0  0  0  0
   -2.0991   12.1752   -6.9687 C   0  0  0  0  0  0  0  0  0  0  0  0
   -1.7663   13.4191   -6.4362 C   0  0  0  0  0  0  0  0  0  0  0  0
   -0.4291   13.4776   -6.3870 N   0  0  0  0  0  0  0  0  0  0  0  0
    0.1723   12.4029   -6.8190 N   0  0  0  0  0  0  0  0  0  0  0  0
   -0.8029   11.5945   -7.2007 C   0  0  0  0  0  0  0  0  0  0  0  0
    0.3904   14.5868   -5.9117 C   0  0  0  0  0  0  0  0  0  0  0  0
   -6.0966   12.3009   -9.8720 H   0  0  0  0  0  0  0  0  0  0  0  0
   -8.1900   10.1177  -13.8945 H   0  0  0  0  0  0  0  0  0  0  0  0
   -6.8945   12.2471  -14.0936 H   0  0  0  0  0  0  0  0  0  0  0  0
   -8.6289    7.9682   -9.4428 H   0  0  0  0  0  0  0  0  0  0  0  0
   -8.1028   10.5460   -7.5866 H   0  0  0  0  0  0  0  0  0  0  0  0
   -7.3947    8.8954   -7.5616 H   0  0  0  0  0  0  0  0  0  0  0  0
   -4.1641   12.8399  -10.9098 H   0  0  0  0  0  0  0  0  0  0  0  0
   -2.5387   14.5023  -10.9550 H   0  0  0  0  0  0  0  0  0  0  0  0
   -3.0724   14.8267  -12.6391 H   0  0  0  0  0  0  0  0  0  0  0  0
   -3.8811   15.6547  -11.2654 H   0  0  0  0  0  0  0  0  0  0  0  0
   -4.8927    8.7823   -8.4965 H   0  0  0  0  0  0  0  0  0  0  0  0
   -2.6613    9.7546   -8.0533 H   0  0  0  0  0  0  0  0  0  0  0  0
   -4.5126   13.2851   -6.4732 H   0  0  0  0  0  0  0  0  0  0  0  0
   -6.7407   12.3097   -6.9056 H   0  0  0  0  0  0  0  0  0  0  0  0
   -2.4554   14.1894   -6.1228 H   0  0  0  0  0  0  0  0  0  0  0  0
   -0.6455   10.6177   -7.6337 H   0  0  0  0  0  0  0  0  0  0  0  0
    1.4543   14.3214   -5.9997 H   0  0  0  0  0  0  0  0  0  0  0  0
    0.1843   15.4810   -6.5183 H   0  0  0  0  0  0  0  0  0  0  0  0
    0.1504   14.7949   -4.8586 H   0  0  0  0  0  0  0  0  0  0  0  0
  1  2  2  0  0  0  0
  1  4  1  0  0  0  0
  1 13  1  0  0  0  0
  2  6  1  0  0  0  0
  3  4  2  0  0  0  0
  3  5  1  0  0  0  0
  5  6  1  0  0  0  0
  5  9  2  0  0  0  0
  6  7  2  0  0  0  0
  7  8  1  0  0  0  0
  7 10  1  0  0  0  0
  8  9  1  0  0  0  0
 10 15  1  0  0  0  0
 11 12  1  0  0  0  0
 11 13  1  0  0  0  0
 13 14  2  0  0  0  0
 15 16  2  0  0  0  0
 15 20  1  0  0  0  0
 16 17  1  0  0  0  0
 17 18  2  0  0  0  0
 18 19  1  0  0  0  0
 18 21  1  0  0  0  0
 19 20  2  0  0  0  0
 21 22  2  0  0  0  0
 21 25  1  0  0  0  0
 22 23  1  0  0  0  0
 23 24  1  0  0  0  0
 23 26  1  0  0  0  0
 24 25  2  0  0  0  0
  2 27  1  0  0  0  0
  3 28  1  0  0  0  0
  4 29  1  0  0  0  0
  8 30  1  0  0  0  0
 10 31  1  0  0  0  0
 10 32  1  0  0  0  0
 11 33  1  0  0  0  0
 12 34  1  0  0  0  0
 12 35  1  0  0  0  0
 12 36  1  0  0  0  0
 16 37  1  0  0  0  0
 17 38  1  0  0  0  0
 19 39  1  0  0  0  0
 20 40  1  0  0  0  0
 22 41  1  0  0  0  0
 25 42  1  0  0  0  0
 26 43  1  0  0  0  0
 26 44  1  0  0  0  0
 26 45  1  0  0  0  0
M  END
> <Name>
19

> <IC50[uM]>
0.015

$$$$
19
  -OEChem-05192314333D
 Structure written by MMmdl.
 45 48  0     0  0  0  0  0  0999 V2000
   -6.3863   12.3686  -12.0106 C   0  0  0  0  0  0  0  0  0  0  0  0
   -6.5303   11.8179  -10.7351 C   0  0  0  0  0  0  0  0  0  0  0  0
   -7.7274   10.5747  -13.0322 C   0  0  0  0  0  0  0  0  0  0  0  0
   -6.9939   11.7717  -13.1290 C   0  0  0  0  0  0  0  0  0  0  0  0
   -7.8233   10.0108  -11.7572 C   0  0  0  0  0  0  0  0  0  0  0  0
   -7.2504   10.6246  -10.6026 C   0  0  0  0  0  0  0  0  0  0  0  0
   -7.6148    9.7488   -9.5126 C   0  0  0  0  0  0  0  0  0  0  0  0
   -8.2772    8.7301   -9.9866 N   0  0  0  0  0  0  0  0  0  0  0  0
   -8.4133    8.8585  -11.2996 N   0  0  0  0  0  0  0  0  0  0  0  0
   -7.3367    9.8906   -8.0265 C   0  0  0  0  0  0  0  0  0  0  0  0
   -4.3739   13.6178  -11.5022 N   0  0  0  0  0  0  0  0  0  0  0  0
   -3.4056   14.7196  -11.5963 C   0  0  0  0  0  0  0  0  0  0  0  0
   -5.5407   13.6198  -12.1903 C   0  0  0  0  0  0  0  0  0  0  0  0
   -5.8948   14.5296  -12.9394 O   0  0  0  0  0  0  0  0  0  0  0  0
   -5.9610   10.4852   -7.7361 C   0  0  0  0  0  0  0  0  0  0  0  0
   -4.8098    9.7648   -8.0558 C   0  0  0  0  0  0  0  0  0  0  0  0
   -3.5520   10.3132   -7.8064 C   0  0  0  0  0  0  0  0  0  0  0  0
   -3.4430   11.5871   -7.2363 C   0  0  0  0  0  0  0  0  0  0  0  0
   -4.5944   12.3027   -6.9144 C   0  0  0  0  0  0  0  0  0  0  0  0
   -5.8504   11.7539   -7.1603 C   0  0  0  0  0  0  0  0  0  0  0  0
   -2.0991   12.1752   -6.9687 C   0  0  0  0  0  0  0  0  0  0  0  0
   -1.7663   13.4191   -6.4362 C   0  0  0  0  0  0  0  0  0  0  0  0
   -0.4291   13.4776   -6.3870 N   0  0  0  0  0  0  0  0  0  0  0  0
    0.1723   12.4029   -6.8190 N   0  0  0  0  0  0  0  0  0  0  0  0
   -0.8029   11.5945   -7.2007 C   0  0  0  0  0  0  0  0  0  0  0  0
    0.3904   14.5868   -5.9117 C   0  0  0  0  0  0  0  0  0  0  0  0
   -6.0966   12.3009   -9.8720 H   0  0  0  0  0  0  0  0  0  0  0  0
   -8.1900   10.1177  -13.8945 H   0  0  0  0  0  0  0  0  0  0  0  0
   -6.8945   12.2471  -14.0936 H   0  0  0  0  0  0  0  0  0  0  0  0
   -8.8864    8.1986  -11.8833 H   0  0  0  0  0  0  0  0  0  0  0  0
   -8.1028   10.5460   -7.5866 H   0  0  0  0  0  0  0  0  0  0  0  0
   -7.3947    8.8954   -7.5616 H   0  0  0  0  0  0  0  0  0  0  0  0
   -4.1641   12.8399  -10.9098 H   0  0  0  0  0  0  0  0  0  0  0  0
   -2.5387   14.5023  -10.9550 H   0  0  0  0  0  0  0  0  0  0  0  0
   -3.0724   14.8267  -12.6391 H   0  0  0  0  0  0  0  0  0  0  0  0
   -3.8811   15.6547  -11.2654 H   0  0  0  0  0  0  0  0  0  0  0  0
   -4.8927    8.7823   -8.4965 H   0  0  0  0  0  0  0  0  0  0  0  0
   -2.6613    9.7546   -8.0533 H   0  0  0  0  0  0  0  0  0  0  0  0
   -4.5126   13.2851   -6.4732 H   0  0  0  0  0  0  0  0  0  0  0  0
   -6.7407   12.3097   -6.9056 H   0  0  0  0  0  0  0  0  0  0  0  0
   -2.4554   14.1894   -6.1228 H   0  0  0  0  0  0  0  0  0  0  0  0
   -0.6455   10.6177   -7.6337 H   0  0  0  0  0  0  0  0  0  0  0  0
    1.4543   14.3214   -5.9997 H   0  0  0  0  0  0  0  0  0  0  0  0
    0.1843   15.4810   -6.5183 H   0  0  0  0  0  0  0  0  0  0  0  0
    0.1504   14.7949   -4.8586 H   0  0  0  0  0  0  0  0  0  0  0  0
  1  2  2  0  0  0  0
  1  4  1  0  0  0  0
  1 13  1  0  0  0  0
  2  6  1  0  0  0  0
  3  4  2  0  0  0  0
  3  5  1  0  0  0  0
  5  6  2  0  0  0  0
  5  9  1  0  0  0  0
  6  7  1  0  0  0  0
  7  8  2  0  0  0  0
  7 10  1  0  0  0  0
  8  9  1  0  0  0  0
 10 15  1  0  0  0  0
 11 12  1  0  0  0  0
 11 13  1  0  0  0  0
 13 14  2  0  0  0  0
 15 16  2  0  0  0  0
 15 20  1  0  0  0  0
 16 17  1  0  0  0  0
 17 18  2  0  0  0  0
 18 19  1  0  0  0  0
 18 21  1  0  0  0  0
 19 20  2  0  0  0  0
 21 22  2  0  0  0  0
 21 25  1  0  0  0  0
 22 23  1  0  0  0  0
 23 24  1  0  0  0  0
 23 26  1  0  0  0  0
 24 25  2  0  0  0  0
  2 27  1  0  0  0  0
  3 28  1  0  0  0  0
  4 29  1  0  0  0  0
  9 30  1  0  0  0  0
 10 31  1  0  0  0  0
 10 32  1  0  0  0  0
 11 33  1  0  0  0  0
 12 34  1  0  0  0  0
 12 35  1  0  0  0  0
 12 36  1  0  0  0  0
 16 37  1  0  0  0  0
 17 38  1  0  0  0  0
 19 39  1  0  0  0  0
 20 40  1  0  0  0  0
 22 41  1  0  0  0  0
 25 42  1  0  0  0  0
 26 43  1  0  0  0  0
 26 44  1  0  0  0  0
 26 45  1  0  0  0  0
M  END
> <Name>
19

> <IC50[uM]>
0.015

$$$$
19
  -OEChem-05192314333D
 Structure written by MMmdl.
 45 48  0     0  0  0  0  0  0999 V2000
   -6.3863   12.3686  -12.0106 C   0  0  0  0  0  0  0  0  0  0  0  0
   -6.5303   11.8179  -10.7351 C   0  0  0  0  0  0  0  0  0  0  0  0
   -7.7274   10.5747  -13.0322 C   0  0  0  0  0  0  0  0  0  0  0  0
   -6.9939   11.7717  -13.1290 C   0  0  0  0  0  0  0  0  0  0  0  0
   -7.8233   10.0108  -11.7572 C   0  0  0  0  0  0  0  0  0  0  0  0
   -7.2504   10.6246  -10.6026 C   0  0  0  0  0  0  0  0  0  0  0  0
   -7.6148    9.7488   -9.5126 C   0  0  0  0  0  0  0  0  0  0  0  0
   -8.2772    8.7301   -9.9866 N   0  0  0  0  0  0  0  0  0  0  0  0
   -8.4133    8.8585  -11.2996 N   0  0  0  0  0  0  0  0  0  0  0  0
   -7.3367    9.8906   -8.0265 C   0  0  0  0  0  0  0  0  0  0  0  0
   -4.3739   13.6178  -11.5022 N   0  0  0  0  0  0  0  0  0  0  0  0
   -3.4056   14.7196  -11.5963 C   0  0  0  0  0  0  0  0  0  0  0  0
   -5.5407   13.6198  -12.1903 C   0  0  0  0  0  0  0  0  0  0  0  0
   -5.8948   14.5296  -12.9394 O   0  0  0  0  0  0  0  0  0  0  0  0
   -5.9610   10.4852   -7.7361 C   0  0  0  0  0  0  0  0  0  0  0  0
   -4.8098    9.7648   -8.0558 C   0  0  0  0  0  0  0  0  0  0  0  0
   -3.5520   10.3132   -7.8064 C   0  0  0  0  0  0  0  0  0  0  0  0
   -3.4430   11.5871   -7.2363 C   0  0  0  0  0  0  0  0  0  0  0  0
   -4.5944   12.3027   -6.9144 C   0  0  0  0  0  0  0  0  0  0  0  0
   -5.8504   11.7539   -7.1603 C   0  0  0  0  0  0  0  0  0  0  0  0
   -2.0991   12.1752   -6.9687 C   0  0  0  0  0  0  0  0  0  0  0  0
   -1.7663   13.4191   -6.4362 C   0  0  0  0  0  0  0  0  0  0  0  0
   -0.4291   13.4776   -6.3870 N   0  0  0  0  0  0  0  0  0  0  0  0
    0.1723   12.4029   -6.8190 N   0  0  0  0  0  0  0  0  0  0  0  0
   -0.8029   11.5945   -7.2007 C   0  0  0  0  0  0  0  0  0  0  0  0
    0.3904   14.5868   -5.9117 C   0  0  0  0  0  0  0  0  0  0  0  0
   -6.0966   12.3009   -9.8720 H   0  0  0  0  0  0  0  0  0  0  0  0
   -8.1900   10.1177  -13.8945 H   0  0  0  0  0  0  0  0  0  0  0  0
   -6.8945   12.2471  -14.0936 H   0  0  0  0  0  0  0  0  0  0  0  0
   -8.6289    7.9682   -9.4428 H   0  0  0  0  0  0  0  0  0  0  0  0
   -8.1028   10.5460   -7.5866 H   0  0  0  0  0  0  0  0  0  0  0  0
   -7.3947    8.8954   -7.5616 H   0  0  0  0  0  0  0  0  0  0  0  0
   -2.5387   14.5023  -10.9550 H   0  0  0  0  0  0  0  0  0  0  0  0
   -3.0724   14.8267  -12.6391 H   0  0  0  0  0  0  0  0  0  0  0  0
   -3.8811   15.6547  -11.2654 H   0  0  0  0  0  0  0  0  0  0  0  0
   -5.2461   15.2234  -12.9243 H   0  0  0  0  0  0  0  0  0  0  0  0
   -4.8927    8.7823   -8.4965 H   0  0  0  0  0  0  0  0  0  0  0  0
   -2.6613    9.7546   -8.0533 H   0  0  0  0  0  0  0  0  0  0  0  0
   -4.5126   13.2851   -6.4732 H   0  0  0  0  0  0  0  0  0  0  0  0
   -6.7407   12.3097   -6.9056 H   0  0  0  0  0  0  0  0  0  0  0  0
   -2.4554   14.1894   -6.1228 H   0  0  0  0  0  0  0  0  0  0  0  0
   -0.6455   10.6177   -7.6337 H   0  0  0  0  0  0  0  0  0  0  0  0
    1.4543   14.3214   -5.9997 H   0  0  0  0  0  0  0  0  0  0  0  0
    0.1843   15.4810   -6.5183 H   0  0  0  0  0  0  0  0  0  0  0  0
    0.1504   14.7949   -4.8586 H   0  0  0  0  0  0  0  0  0  0  0  0
  1  2  2  0  0  0  0
  1  4  1  0  0  0  0
  1 13  1  0  0  0  0
  2  6  1  0  0  0  0
  3  4  2  0  0  0  0
  3  5  1  0  0  0  0
  5  6  1  0  0  0  0
  5  9  2  0  0  0  0
  6  7  2  0  0  0  0
  7  8  1  0  0  0  0
  7 10  1  0  0  0  0
  8  9  1  0  0  0  0
 10 15  1  0  0  0  0
 11 12  1  0  0  0  0
 11 13  2  0  0  0  0
 13 14  1  0  0  0  0
 15 16  2  0  0  0  0
 15 20  1  0  0  0  0
 16 17  1  0  0  0  0
 17 18  2  0  0  0  0
 18 19  1  0  0  0  0
 18 21  1  0  0  0  0
 19 20  2  0  0  0  0
 21 22  2  0  0  0  0
 21 25  1  0  0  0  0
 22 23  1  0  0  0  0
 23 24  1  0  0  0  0
 23 26  1  0  0  0  0
 24 25  2  0  0  0  0
  2 27  1  0  0  0  0
  3 28  1  0  0  0  0
  4 29  1  0  0  0  0
  8 30  1  0  0  0  0
 10 31  1  0  0  0  0
 10 32  1  0  0  0  0
 12 33  1  0  0  0  0
 12 34  1  0  0  0  0
 12 35  1  0  0  0  0
 14 36  1  0  0  0  0
 16 37  1  0  0  0  0
 17 38  1  0  0  0  0
 19 39  1  0  0  0  0
 20 40  1  0  0  0  0
 22 41  1  0  0  0  0
 25 42  1  0  0  0  0
 26 43  1  0  0  0  0
 26 44  1  0  0  0  0
 26 45  1  0  0  0  0
M  END
> <Name>
19

> <IC50[uM]>
0.015

$$$$
19
  -OEChem-05192314333D
 Structure written by MMmdl.
 45 48  0     0  0  0  0  0  0999 V2000
   -6.3863   12.3686  -12.0106 C   0  0  0  0  0  0  0  0  0  0  0  0
   -6.5303   11.8179  -10.7351 C   0  0  0  0  0  0  0  0  0  0  0  0
   -7.7274   10.5747  -13.0322 C   0  0  0  0  0  0  0  0  0  0  0  0
   -6.9939   11.7717  -13.1290 C   0  0  0  0  0  0  0  0  0  0  0  0
   -7.8233   10.0108  -11.7572 C   0  0  0  0  0  0  0  0  0  0  0  0
   -7.2504   10.6246  -10.6026 C   0  0  0  0  0  0  0  0  0  0  0  0
   -7.6148    9.7488   -9.5126 C   0  0  0  0  0  0  0  0  0  0  0  0
   -8.2772    8.7301   -9.9866 N   0  0  0  0  0  0  0  0  0  0  0  0
   -8.4133    8.8585  -11.2996 N   0  0  0  0  0  0  0  0  0  0  0  0
   -7.3367    9.8906   -8.0265 C   0  0  0  0  0  0  0  0  0  0  0  0
   -4.3739   13.6178  -11.5022 N   0  0  0  0  0  0  0  0  0  0  0  0
   -3.4056   14.7196  -11.5963 C   0  0  0  0  0  0  0  0  0  0  0  0
   -5.5407   13.6198  -12.1903 C   0  0  0  0  0  0  0  0  0  0  0  0
   -5.8948   14.5296  -12.9394 O   0  0  0  0  0  0  0  0  0  0  0  0
   -5.9610   10.4852   -7.7361 C   0  0  0  0  0  0  0  0  0  0  0  0
   -4.8098    9.7648   -8.0558 C   0  0  0  0  0  0  0  0  0  0  0  0
   -3.5520   10.3132   -7.8064 C   0  0  0  0  0  0  0  0  0  0  0  0
   -3.4430   11.5871   -7.2363 C   0  0  0  0  0  0  0  0  0  0  0  0
   -4.5944   12.3027   -6.9144 C   0  0  0  0  0  0  0  0  0  0  0  0
   -5.8504   11.7539   -7.1603 C   0  0  0  0  0  0  0  0  0  0  0  0
   -2.0991   12.1752   -6.9687 C   0  0  0  0  0  0  0  0  0  0  0  0
   -1.7663   13.4191   -6.4362 C   0  0  0  0  0  0  0  0  0  0  0  0
   -0.4291   13.4776   -6.3870 N   0  0  0  0  0  0  0  0  0  0  0  0
    0.1723   12.4029   -6.8190 N   0  0  0  0  0  0  0  0  0  0  0  0
   -0.8029   11.5945   -7.2007 C   0  0  0  0  0  0  0  0  0  0  0  0
    0.3904   14.5868   -5.9117 C   0  0  0  0  0  0  0  0  0  0  0  0
   -6.0966   12.3009   -9.8720 H   0  0  0  0  0  0  0  0  0  0  0  0
   -8.1900   10.1177  -13.8945 H   0  0  0  0  0  0  0  0  0  0  0  0
   -6.8945   12.2471  -14.0936 H   0  0  0  0  0  0  0  0  0  0  0  0
   -8.8864    8.1986  -11.8833 H   0  0  0  0  0  0  0  0  0  0  0  0
   -8.1028   10.5460   -7.5866 H   0  0  0  0  0  0  0  0  0  0  0  0
   -7.3947    8.8954   -7.5616 H   0  0  0  0  0  0  0  0  0  0  0  0
   -2.5387   14.5023  -10.9550 H   0  0  0  0  0  0  0  0  0  0  0  0
   -3.0724   14.8267  -12.6391 H   0  0  0  0  0  0  0  0  0  0  0  0
   -3.8811   15.6547  -11.2654 H   0  0  0  0  0  0  0  0  0  0  0  0
   -5.2461   15.2234  -12.9243 H   0  0  0  0  0  0  0  0  0  0  0  0
   -4.8927    8.7823   -8.4965 H   0  0  0  0  0  0  0  0  0  0  0  0
   -2.6613    9.7546   -8.0533 H   0  0  0  0  0  0  0  0  0  0  0  0
   -4.5126   13.2851   -6.4732 H   0  0  0  0  0  0  0  0  0  0  0  0
   -6.7407   12.3097   -6.9056 H   0  0  0  0  0  0  0  0  0  0  0  0
   -2.4554   14.1894   -6.1228 H   0  0  0  0  0  0  0  0  0  0  0  0
   -0.6455   10.6177   -7.6337 H   0  0  0  0  0  0  0  0  0  0  0  0
    1.4543   14.3214   -5.9997 H   0  0  0  0  0  0  0  0  0  0  0  0
    0.1843   15.4810   -6.5183 H   0  0  0  0  0  0  0  0  0  0  0  0
    0.1504   14.7949   -4.8586 H   0  0  0  0  0  0  0  0  0  0  0  0
  1  2  2  0  0  0  0
  1  4  1  0  0  0  0
  1 13  1  0  0  0  0
  2  6  1  0  0  0  0
  3  4  2  0  0  0  0
  3  5  1  0  0  0  0
  5  6  2  0  0  0  0
  5  9  1  0  0  0  0
  6  7  1  0  0  0  0
  7  8  2  0  0  0  0
  7 10  1  0  0  0  0
  8  9  1  0  0  0  0
 10 15  1  0  0  0  0
 11 12  1  0  0  0  0
 11 13  2  0  0  0  0
 13 14  1  0  0  0  0
 15 16  2  0  0  0  0
 15 20  1  0  0  0  0
 16 17  1  0  0  0  0
 17 18  2  0  0  0  0
 18 19  1  0  0  0  0
 18 21  1  0  0  0  0
 19 20  2  0  0  0  0
 21 22  2  0  0  0  0
 21 25  1  0  0  0  0
 22 23  1  0  0  0  0
 23 24  1  0  0  0  0
 23 26  1  0  0  0  0
 24 25  2  0  0  0  0
  2 27  1  0  0  0  0
  3 28  1  0  0  0  0
  4 29  1  0  0  0  0
  9 30  1  0  0  0  0
 10 31  1  0  0  0  0
 10 32  1  0  0  0  0
 12 33  1  0  0  0  0
 12 34  1  0  0  0  0
 12 35  1  0  0  0  0
 14 36  1  0  0  0  0
 16 37  1  0  0  0  0
 17 38  1  0  0  0  0
 19 39  1  0  0  0  0
 20 40  1  0  0  0  0
 22 41  1  0  0  0  0
 25 42  1  0  0  0  0
 26 43  1  0  0  0  0
 26 44  1  0  0  0  0
 26 45  1  0  0  0  0
M  END
> <Name>
19

> <IC50[uM]>
0.015

$$$$
19
  -OEChem-05192314333D
 Structure written by MMmdl.
 45 48  0     1  0  0  0  0  0999 V2000
   -6.3863   12.3686  -12.0106 C   0  0  0  0  0  0  0  0  0  0  0  0
   -6.5303   11.8179  -10.7351 C   0  0  0  0  0  0  0  0  0  0  0  0
   -7.7274   10.5747  -13.0322 C   0  0  0  0  0  0  0  0  0  0  0  0
   -6.9939   11.7717  -13.1290 C   0  0  0  0  0  0  0  0  0  0  0  0
   -7.8233   10.0108  -11.7572 C   0  0  0  0  0  0  0  0  0  0  0  0
   -7.2504   10.6246  -10.6026 C   0  0  0  0  0  0  0  0  0  0  0  0
   -7.6148    9.7488   -9.5126 C   0  0  3  0  0  0  0  0  0  0  0  0
   -8.2772    8.7301   -9.9866 N   0  0  0  0  0  0  0  0  0  0  0  0
   -8.4133    8.8585  -11.2996 N   0  0  0  0  0  0  0  0  0  0  0  0
   -7.3367    9.8906   -8.0265 C   0  0  0  0  0  0  0  0  0  0  0  0
   -4.3739   13.6178  -11.5022 N   0  0  0  0  0  0  0  0  0  0  0  0
   -3.4056   14.7196  -11.5963 C   0  0  0  0  0  0  0  0  0  0  0  0
   -5.5407   13.6198  -12.1903 C   0  0  0  0  0  0  0  0  0  0  0  0
   -5.8948   14.5296  -12.9394 O   0  0  0  0  0  0  0  0  0  0  0  0
   -5.9610   10.4852   -7.7361 C   0  0  0  0  0  0  0  0  0  0  0  0
   -4.8098    9.7648   -8.0558 C   0  0  0  0  0  0  0  0  0  0  0  0
   -3.5520   10.3132   -7.8064 C   0  0  0  0  0  0  0  0  0  0  0  0
   -3.4430   11.5871   -7.2363 C   0  0  0  0  0  0  0  0  0  0  0  0
   -4.5944   12.3027   -6.9144 C   0  0  0  0  0  0  0  0  0  0  0  0
   -5.8504   11.7539   -7.1603 C   0  0  0  0  0  0  0  0  0  0  0  0
   -2.0991   12.1752   -6.9687 C   0  0  0  0  0  0  0  0  0  0  0  0
   -1.7663   13.4191   -6.4362 C   0  0  0  0  0  0  0  0  0  0  0  0
   -0.4291   13.4776   -6.3870 N   0  0  0  0  0  0  0  0  0  0  0  0
    0.1723   12.4029   -6.8190 N   0  0  0  0  0  0  0  0  0  0  0  0
   -0.8029   11.5945   -7.2007 C   0  0  0  0  0  0  0  0  0  0  0  0
    0.3904   14.5868   -5.9117 C   0  0  0  0  0  0  0  0  0  0  0  0
   -6.0966   12.3009   -9.8720 H   0  0  0  0  0  0  0  0  0  0  0  0
   -8.1900   10.1177  -13.8945 H   0  0  0  0  0  0  0  0  0  0  0  0
   -6.8945   12.2471  -14.0936 H   0  0  0  0  0  0  0  0  0  0  0  0
   -6.6717    9.1968   -9.6383 H   0  0  0  0  0  0  0  0  0  0  0  0
   -8.1028   10.5460   -7.5866 H   0  0  0  0  0  0  0  0  0  0  0  0
   -7.3947    8.8954   -7.5616 H   0  0  0  0  0  0  0  0  0  0  0  0
   -4.1641   12.8399  -10.9098 H   0  0  0  0  0  0  0  0  0  0  0  0
   -2.5387   14.5023  -10.9550 H   0  0  0  0  0  0  0  0  0  0  0  0
   -3.0724   14.8267  -12.6391 H   0  0  0  0  0  0  0  0  0  0  0  0
   -3.8811   15.6547  -11.2654 H   0  0  0  0  0  0  0  0  0  0  0  0
   -4.8927    8.7823   -8.4965 H   0  0  0  0  0  0  0  0  0  0  0  0
   -2.6613    9.7546   -8.0533 H   0  0  0  0  0  0  0  0  0  0  0  0
   -4.5126   13.2851   -6.4732 H   0  0  0  0  0  0  0  0  0  0  0  0
   -6.7407   12.3097   -6.9056 H   0  0  0  0  0  0  0  0  0  0  0  0
   -2.4554   14.1894   -6.1228 H   0  0  0  0  0  0  0  0  0  0  0  0
   -0.6455   10.6177   -7.6337 H   0  0  0  0  0  0  0  0  0  0  0  0
    1.4543   14.3214   -5.9997 H   0  0  0  0  0  0  0  0  0  0  0  0
    0.1843   15.4810   -6.5183 H   0  0  0  0  0  0  0  0  0  0  0  0
    0.1504   14.7949   -4.8586 H   0  0  0  0  0  0  0  0  0  0  0  0
  1  2  2  0  0  0  0
  1  4  1  0  0  0  0
  1 13  1  0  0  0  0
  2  6  1  0  0  0  0
  3  4  2  0  0  0  0
  3  5  1  0  0  0  0
  5  6  2  0  0  0  0
  5  9  1  0  0  0  0
  6  7  1  0  0  0  0
  7  8  1  0  0  0  0
  7 10  1  0  0  0  0
  8  9  2  0  0  0  0
 10 15  1  0  0  0  0
 11 12  1  0  0  0  0
 11 13  1  0  0  0  0
 13 14  2  0  0  0  0
 15 16  2  0  0  0  0
 15 20  1  0  0  0  0
 16 17  1  0  0  0  0
 17 18  2  0  0  0  0
 18 19  1  0  0  0  0
 18 21  1  0  0  0  0
 19 20  2  0  0  0  0
 21 22  2  0  0  0  0
 21 25  1  0  0  0  0
 22 23  1  0  0  0  0
 23 24  1  0  0  0  0
 23 26  1  0  0  0  0
 24 25  2  0  0  0  0
  2 27  1  0  0  0  0
  3 28  1  0  0  0  0
  4 29  1  0  0  0  0
  7 30  1  0  0  0  0
 10 31  1  0  0  0  0
 10 32  1  0  0  0  0
 11 33  1  0  0  0  0
 12 34  1  0  0  0  0
 12 35  1  0  0  0  0
 12 36  1  0  0  0  0
 16 37  1  0  0  0  0
 17 38  1  0  0  0  0
 19 39  1  0  0  0  0
 20 40  1  0  0  0  0
 22 41  1  0  0  0  0
 25 42  1  0  0  0  0
 26 43  1  0  0  0  0
 26 44  1  0  0  0  0
 26 45  1  0  0  0  0
M  END
> <Name>
19

> <IC50[uM]>
0.015

$$$$
19
  -OEChem-05192314333D
 Structure written by MMmdl.
 45 48  0     1  0  0  0  0  0999 V2000
   -6.3863   12.3686  -12.0106 C   0  0  0  0  0  0  0  0  0  0  0  0
   -6.5303   11.8179  -10.7351 C   0  0  0  0  0  0  0  0  0  0  0  0
   -7.7274   10.5747  -13.0322 C   0  0  0  0  0  0  0  0  0  0  0  0
   -6.9939   11.7717  -13.1290 C   0  0  0  0  0  0  0  0  0  0  0  0
   -7.8233   10.0108  -11.7572 C   0  0  0  0  0  0  0  0  0  0  0  0
   -7.2504   10.6246  -10.6026 C   0  0  0  0  0  0  0  0  0  0  0  0
   -7.6148    9.7488   -9.5126 C   0  0  3  0  0  0  0  0  0  0  0  0
   -8.2772    8.7301   -9.9866 N   0  0  0  0  0  0  0  0  0  0  0  0
   -8.4133    8.8585  -11.2996 N   0  0  0  0  0  0  0  0  0  0  0  0
   -7.3367    9.8906   -8.0265 C   0  0  0  0  0  0  0  0  0  0  0  0
   -4.3739   13.6178  -11.5022 N   0  0  0  0  0  0  0  0  0  0  0  0
   -3.4056   14.7196  -11.5963 C   0  0  0  0  0  0  0  0  0  0  0  0
   -5.5407   13.6198  -12.1903 C   0  0  0  0  0  0  0  0  0  0  0  0
   -5.8948   14.5296  -12.9394 O   0  0  0  0  0  0  0  0  0  0  0  0
   -5.9610   10.4852   -7.7361 C   0  0  0  0  0  0  0  0  0  0  0  0
   -4.8098    9.7648   -8.0558 C   0  0  0  0  0  0  0  0  0  0  0  0
   -3.5520   10.3132   -7.8064 C   0  0  0  0  0  0  0  0  0  0  0  0
   -3.4430   11.5871   -7.2363 C   0  0  0  0  0  0  0  0  0  0  0  0
   -4.5944   12.3027   -6.9144 C   0  0  0  0  0  0  0  0  0  0  0  0
   -5.8504   11.7539   -7.1603 C   0  0  0  0  0  0  0  0  0  0  0  0
   -2.0991   12.1752   -6.9687 C   0  0  0  0  0  0  0  0  0  0  0  0
   -1.7663   13.4191   -6.4362 C   0  0  0  0  0  0  0  0  0  0  0  0
   -0.4291   13.4776   -6.3870 N   0  0  0  0  0  0  0  0  0  0  0  0
    0.1723   12.4029   -6.8190 N   0  0  0  0  0  0  0  0  0  0  0  0
   -0.8029   11.5945   -7.2007 C   0  0  0  0  0  0  0  0  0  0  0  0
    0.3904   14.5868   -5.9117 C   0  0  0  0  0  0  0  0  0  0  0  0
   -6.0966   12.3009   -9.8720 H   0  0  0  0  0  0  0  0  0  0  0  0
   -8.1900   10.1177  -13.8945 H   0  0  0  0  0  0  0  0  0  0  0  0
   -6.8945   12.2471  -14.0936 H   0  0  0  0  0  0  0  0  0  0  0  0
   -6.6717    9.1968   -9.6383 H   0  0  0  0  0  0  0  0  0  0  0  0
   -8.1028   10.5460   -7.5866 H   0  0  0  0  0  0  0  0  0  0  0  0
   -7.3947    8.8954   -7.5616 H   0  0  0  0  0  0  0  0  0  0  0  0
   -2.5387   14.5023  -10.9550 H   0  0  0  0  0  0  0  0  0  0  0  0
   -3.0724   14.8267  -12.6391 H   0  0  0  0  0  0  0  0  0  0  0  0
   -3.8811   15.6547  -11.2654 H   0  0  0  0  0  0  0  0  0  0  0  0
   -5.2461   15.2234  -12.9243 H   0  0  0  0  0  0  0  0  0  0  0  0
   -4.8927    8.7823   -8.4965 H   0  0  0  0  0  0  0  0  0  0  0  0
   -2.6613    9.7546   -8.0533 H   0  0  0  0  0  0  0  0  0  0  0  0
   -4.5126   13.2851   -6.4732 H   0  0  0  0  0  0  0  0  0  0  0  0
   -6.7407   12.3097   -6.9056 H   0  0  0  0  0  0  0  0  0  0  0  0
   -2.4554   14.1894   -6.1228 H   0  0  0  0  0  0  0  0  0  0  0  0
   -0.6455   10.6177   -7.6337 H   0  0  0  0  0  0  0  0  0  0  0  0
    1.4543   14.3214   -5.9997 H   0  0  0  0  0  0  0  0  0  0  0  0
    0.1843   15.4810   -6.5183 H   0  0  0  0  0  0  0  0  0  0  0  0
    0.1504   14.7949   -4.8586 H   0  0  0  0  0  0  0  0  0  0  0  0
  1  2  2  0  0  0  0
  1  4  1  0  0  0  0
  1 13  1  0  0  0  0
  2  6  1  0  0  0  0
  3  4  2  0  0  0  0
  3  5  1  0  0  0  0
  5  6  2  0  0  0  0
  5  9  1  0  0  0  0
  6  7  1  0  0  0  0
  7  8  1  0  0  0  0
  7 10  1  0  0  0  0
  8  9  2  0  0  0  0
 10 15  1  0  0  0  0
 11 12  1  0  0  0  0
 11 13  2  0  0  0  0
 13 14  1  0  0  0  0
 15 16  2  0  0  0  0
 15 20  1  0  0  0  0
 16 17  1  0  0  0  0
 17 18  2  0  0  0  0
 18 19  1  0  0  0  0
 18 21  1  0  0  0  0
 19 20  2  0  0  0  0
 21 22  2  0  0  0  0
 21 25  1  0  0  0  0
 22 23  1  0  0  0  0
 23 24  1  0  0  0  0
 23 26  1  0  0  0  0
 24 25  2  0  0  0  0
  2 27  1  0  0  0  0
  3 28  1  0  0  0  0
  4 29  1  0  0  0  0
  7 30  1  0  0  0  0
 10 31  1  0  0  0  0
 10 32  1  0  0  0  0
 12 33  1  0  0  0  0
 12 34  1  0  0  0  0
 12 35  1  0  0  0  0
 14 36  1  0  0  0  0
 16 37  1  0  0  0  0
 17 38  1  0  0  0  0
 19 39  1  0  0  0  0
 20 40  1  0  0  0  0
 22 41  1  0  0  0  0
 25 42  1  0  0  0  0
 26 43  1  0  0  0  0
 26 44  1  0  0  0  0
 26 45  1  0  0  0  0
M  END
> <Name>
19

> <IC50[uM]>
0.015

$$$$
19
  -OEChem-05192314333D
 Structure written by MMmdl.
 45 48  0     0  0  0  0  0  0999 V2000
   -6.3863   12.3686  -12.0106 C   0  0  0  0  0  0  0  0  0  0  0  0
   -6.5303   11.8179  -10.7351 C   0  0  0  0  0  0  0  0  0  0  0  0
   -7.7274   10.5747  -13.0322 C   0  0  0  0  0  0  0  0  0  0  0  0
   -6.9939   11.7717  -13.1290 C   0  0  0  0  0  0  0  0  0  0  0  0
   -7.8233   10.0108  -11.7572 C   0  0  0  0  0  0  0  0  0  0  0  0
   -7.2504   10.6246  -10.6026 C   0  0  0  0  0  0  0  0  0  0  0  0
   -7.6148    9.7488   -9.5126 C   0  0  0  0  0  0  0  0  0  0  0  0
   -8.2772    8.7301   -9.9866 N   0  0  0  0  0  0  0  0  0  0  0  0
   -8.4133    8.8585  -11.2996 N   0  0  0  0  0  0  0  0  0  0  0  0
   -7.3367    9.8906   -8.0265 C   0  0  0  0  0  0  0  0  0  0  0  0
   -4.3739   13.6178  -11.5022 N   0  0  0  0  0  0  0  0  0  0  0  0
   -3.4056   14.7196  -11.5963 C   0  0  0  0  0  0  0  0  0  0  0  0
   -5.5407   13.6198  -12.1903 C   0  0  0  0  0  0  0  0  0  0  0  0
   -5.8948   14.5296  -12.9394 O   0  0  0  0  0  0  0  0  0  0  0  0
   -5.9610   10.4852   -7.7361 C   0  0  0  0  0  0  0  0  0  0  0  0
   -4.8098    9.7648   -8.0558 C   0  0  0  0  0  0  0  0  0  0  0  0
   -3.5520   10.3132   -7.8064 C   0  0  0  0  0  0  0  0  0  0  0  0
   -3.4430   11.5871   -7.2363 C   0  0  0  0  0  0  0  0  0  0  0  0
   -4.5944   12.3027   -6.9144 C   0  0  0  0  0  0  0  0  0  0  0  0
   -5.8504   11.7539   -7.1603 C   0  0  0  0  0  0  0  0  0  0  0  0
   -2.0991   12.1752   -6.9687 C   0  0  0  0  0  0  0  0  0  0  0  0
   -1.7663   13.4191   -6.4362 C   0  0  0  0  0  0  0  0  0  0  0  0
   -0.4291   13.4776   -6.3870 N   0  0  0  0  0  0  0  0  0  0  0  0
    0.1723   12.4029   -6.8190 N   0  0  0  0  0  0  0  0  0  0  0  0
   -0.8029   11.5945   -7.2007 C   0  0  0  0  0  0  0  0  0  0  0  0
    0.3904   14.5868   -5.9117 C   0  0  0  0  0  0  0  0  0  0  0  0
   -6.0966   12.3009   -9.8720 H   0  0  0  0  0  0  0  0  0  0  0  0
   -8.1900   10.1177  -13.8945 H   0  0  0  0  0  0  0  0  0  0  0  0
   -6.8945   12.2471  -14.0936 H   0  0  0  0  0  0  0  0  0  0  0  0
   -7.7794    7.8866   -9.7847 H   0  0  0  0  0  0  0  0  0  0  0  0
   -9.3874    8.8810  -11.5245 H   0  0  0  0  0  0  0  0  0  0  0  0
   -8.0374    9.6016   -7.2571 H   0  0  0  0  0  0  0  0  0  0  0  0
   -4.1641   12.8399  -10.9098 H   0  0  0  0  0  0  0  0  0  0  0  0
   -2.5387   14.5023  -10.9550 H   0  0  0  0  0  0  0  0  0  0  0  0
   -3.0724   14.8267  -12.6391 H   0  0  0  0  0  0  0  0  0  0  0  0
   -3.8811   15.6547  -11.2654 H   0  0  0  0  0  0  0  0  0  0  0  0
   -4.8927    8.7823   -8.4965 H   0  0  0  0  0  0  0  0  0  0  0  0
   -2.6613    9.7546   -8.0533 H   0  0  0  0  0  0  0  0  0  0  0  0
   -4.5126   13.2851   -6.4732 H   0  0  0  0  0  0  0  0  0  0  0  0
   -6.7407   12.3097   -6.9056 H   0  0  0  0  0  0  0  0  0  0  0  0
   -2.4554   14.1894   -6.1228 H   0  0  0  0  0  0  0  0  0  0  0  0
   -0.6455   10.6177   -7.6337 H   0  0  0  0  0  0  0  0  0  0  0  0
    1.4543   14.3214   -5.9997 H   0  0  0  0  0  0  0  0  0  0  0  0
    0.1843   15.4810   -6.5183 H   0  0  0  0  0  0  0  0  0  0  0  0
    0.1504   14.7949   -4.8586 H   0  0  0  0  0  0  0  0  0  0  0  0
  1  2  2  0  0  0  0
  1  4  1  0  0  0  0
  1 13  1  0  0  0  0
  2  6  1  0  0  0  0
  3  4  2  0  0  0  0
  3  5  1  0  0  0  0
  5  6  2  0  0  0  0
  5  9  1  0  0  0  0
  6  7  1  0  0  0  0
  7  8  1  0  0  0  0
  7 10  2  3  0  0  0
  8  9  1  0  0  0  0
 10 15  1  0  0  0  0
 11 12  1  0  0  0  0
 11 13  1  0  0  0  0
 13 14  2  0  0  0  0
 15 16  2  0  0  0  0
 15 20  1  0  0  0  0
 16 17  1  0  0  0  0
 17 18  2  0  0  0  0
 18 19  1  0  0  0  0
 18 21  1  0  0  0  0
 19 20  2  0  0  0  0
 21 22  2  0  0  0  0
 21 25  1  0  0  0  0
 22 23  1  0  0  0  0
 23 24  1  0  0  0  0
 23 26  1  0  0  0  0
 24 25  2  0  0  0  0
  2 27  1  0  0  0  0
  3 28  1  0  0  0  0
  4 29  1  0  0  0  0
  8 30  1  0  0  0  0
  9 31  1  0  0  0  0
 10 32  1  0  0  0  0
 11 33  1  0  0  0  0
 12 34  1  0  0  0  0
 12 35  1  0  0  0  0
 12 36  1  0  0  0  0
 16 37  1  0  0  0  0
 17 38  1  0  0  0  0
 19 39  1  0  0  0  0
 20 40  1  0  0  0  0
 22 41  1  0  0  0  0
 25 42  1  0  0  0  0
 26 43  1  0  0  0  0
 26 44  1  0  0  0  0
 26 45  1  0  0  0  0
M  END
> <Name>
19

> <IC50[uM]>
0.015

$$$$
19
  -OEChem-05192314333D
 Structure written by MMmdl.
 45 48  0     0  0  0  0  0  0999 V2000
   -6.3863   12.3686  -12.0106 C   0  0  0  0  0  0  0  0  0  0  0  0
   -6.5303   11.8179  -10.7351 C   0  0  0  0  0  0  0  0  0  0  0  0
   -7.7274   10.5747  -13.0322 C   0  0  0  0  0  0  0  0  0  0  0  0
   -6.9939   11.7717  -13.1290 C   0  0  0  0  0  0  0  0  0  0  0  0
   -7.8233   10.0108  -11.7572 C   0  0  0  0  0  0  0  0  0  0  0  0
   -7.2504   10.6246  -10.6026 C   0  0  0  0  0  0  0  0  0  0  0  0
   -7.6148    9.7488   -9.5126 C   0  0  0  0  0  0  0  0  0  0  0  0
   -8.2772    8.7301   -9.9866 N   0  0  0  0  0  0  0  0  0  0  0  0
   -8.4133    8.8585  -11.2996 N   0  0  0  0  0  0  0  0  0  0  0  0
   -7.3367    9.8906   -8.0265 C   0  0  0  0  0  0  0  0  0  0  0  0
   -4.3739   13.6178  -11.5022 N   0  0  0  0  0  0  0  0  0  0  0  0
   -3.4056   14.7196  -11.5963 C   0  0  0  0  0  0  0  0  0  0  0  0
   -5.5407   13.6198  -12.1903 C   0  0  0  0  0  0  0  0  0  0  0  0
   -5.8948   14.5296  -12.9394 O   0  0  0  0  0  0  0  0  0  0  0  0
   -5.9610   10.4852   -7.7361 C   0  0  0  0  0  0  0  0  0  0  0  0
   -4.8098    9.7648   -8.0558 C   0  0  0  0  0  0  0  0  0  0  0  0
   -3.5520   10.3132   -7.8064 C   0  0  0  0  0  0  0  0  0  0  0  0
   -3.4430   11.5871   -7.2363 C   0  0  0  0  0  0  0  0  0  0  0  0
   -4.5944   12.3027   -6.9144 C   0  0  0  0  0  0  0  0  0  0  0  0
   -5.8504   11.7539   -7.1603 C   0  0  0  0  0  0  0  0  0  0  0  0
   -2.0991   12.1752   -6.9687 C   0  0  0  0  0  0  0  0  0  0  0  0
   -1.7663   13.4191   -6.4362 C   0  0  0  0  0  0  0  0  0  0  0  0
   -0.4291   13.4776   -6.3870 N   0  0  0  0  0  0  0  0  0  0  0  0
    0.1723   12.4029   -6.8190 N   0  0  0  0  0  0  0  0  0  0  0  0
   -0.8029   11.5945   -7.2007 C   0  0  0  0  0  0  0  0  0  0  0  0
    0.3904   14.5868   -5.9117 C   0  0  0  0  0  0  0  0  0  0  0  0
   -6.0966   12.3009   -9.8720 H   0  0  0  0  0  0  0  0  0  0  0  0
   -8.1900   10.1177  -13.8945 H   0  0  0  0  0  0  0  0  0  0  0  0
   -6.8945   12.2471  -14.0936 H   0  0  0  0  0  0  0  0  0  0  0  0
   -7.7794    7.8866   -9.7847 H   0  0  0  0  0  0  0  0  0  0  0  0
   -9.3874    8.8810  -11.5245 H   0  0  0  0  0  0  0  0  0  0  0  0
   -8.0374    9.6016   -7.2571 H   0  0  0  0  0  0  0  0  0  0  0  0
   -2.5387   14.5023  -10.9550 H   0  0  0  0  0  0  0  0  0  0  0  0
   -3.0724   14.8267  -12.6391 H   0  0  0  0  0  0  0  0  0  0  0  0
   -3.8811   15.6547  -11.2654 H   0  0  0  0  0  0  0  0  0  0  0  0
   -5.2461   15.2234  -12.9243 H   0  0  0  0  0  0  0  0  0  0  0  0
   -4.8927    8.7823   -8.4965 H   0  0  0  0  0  0  0  0  0  0  0  0
   -2.6613    9.7546   -8.0533 H   0  0  0  0  0  0  0  0  0  0  0  0
   -4.5126   13.2851   -6.4732 H   0  0  0  0  0  0  0  0  0  0  0  0
   -6.7407   12.3097   -6.9056 H   0  0  0  0  0  0  0  0  0  0  0  0
   -2.4554   14.1894   -6.1228 H   0  0  0  0  0  0  0  0  0  0  0  0
   -0.6455   10.6177   -7.6337 H   0  0  0  0  0  0  0  0  0  0  0  0
    1.4543   14.3214   -5.9997 H   0  0  0  0  0  0  0  0  0  0  0  0
    0.1843   15.4810   -6.5183 H   0  0  0  0  0  0  0  0  0  0  0  0
    0.1504   14.7949   -4.8586 H   0  0  0  0  0  0  0  0  0  0  0  0
  1  2  2  0  0  0  0
  1  4  1  0  0  0  0
  1 13  1  0  0  0  0
  2  6  1  0  0  0  0
  3  4  2  0  0  0  0
  3  5  1  0  0  0  0
  5  6  2  0  0  0  0
  5  9  1  0  0  0  0
  6  7  1  0  0  0  0
  7  8  1  0  0  0  0
  7 10  2  3  0  0  0
  8  9  1  0  0  0  0
 10 15  1  0  0  0  0
 11 12  1  0  0  0  0
 11 13  2  0  0  0  0
 13 14  1  0  0  0  0
 15 16  2  0  0  0  0
 15 20  1  0  0  0  0
 16 17  1  0  0  0  0
 17 18  2  0  0  0  0
 18 19  1  0  0  0  0
 18 21  1  0  0  0  0
 19 20  2  0  0  0  0
 21 22  2  0  0  0  0
 21 25  1  0  0  0  0
 22 23  1  0  0  0  0
 23 24  1  0  0  0  0
 23 26  1  0  0  0  0
 24 25  2  0  0  0  0
  2 27  1  0  0  0  0
  3 28  1  0  0  0  0
  4 29  1  0  0  0  0
  8 30  1  0  0  0  0
  9 31  1  0  0  0  0
 10 32  1  0  0  0  0
 12 33  1  0  0  0  0
 12 34  1  0  0  0  0
 12 35  1  0  0  0  0
 14 36  1  0  0  0  0
 16 37  1  0  0  0  0
 17 38  1  0  0  0  0
 19 39  1  0  0  0  0
 20 40  1  0  0  0  0
 22 41  1  0  0  0  0
 25 42  1  0  0  0  0
 26 43  1  0  0  0  0
 26 44  1  0  0  0  0
 26 45  1  0  0  0  0
M  END
> <Name>
19

> <IC50[uM]>
0.015

$$$$
19
  -OEChem-05192314333D
 Structure written by MMmdl.
 45 48  0     1  0  0  0  0  0999 V2000
   -6.3863   12.3686  -12.0106 C   0  0  3  0  0  0  0  0  0  0  0  0
   -6.5303   11.8179  -10.7351 C   0  0  0  0  0  0  0  0  0  0  0  0
   -7.7274   10.5747  -13.0322 C   0  0  0  0  0  0  0  0  0  0  0  0
   -6.9939   11.7717  -13.1290 C   0  0  0  0  0  0  0  0  0  0  0  0
   -7.8233   10.0108  -11.7572 C   0  0  0  0  0  0  0  0  0  0  0  0
   -7.2504   10.6246  -10.6026 C   0  0  0  0  0  0  0  0  0  0  0  0
   -7.6148    9.7488   -9.5126 C   0  0  0  0  0  0  0  0  0  0  0  0
   -8.2772    8.7301   -9.9866 N   0  0  0  0  0  0  0  0  0  0  0  0
   -8.4133    8.8585  -11.2996 N   0  0  0  0  0  0  0  0  0  0  0  0
   -7.3367    9.8906   -8.0265 C   0  0  0  0  0  0  0  0  0  0  0  0
   -4.3739   13.6178  -11.5022 N   0  0  0  0  0  0  0  0  0  0  0  0
   -3.4056   14.7196  -11.5963 C   0  0  0  0  0  0  0  0  0  0  0  0
   -5.5407   13.6198  -12.1903 C   0  0  0  0  0  0  0  0  0  0  0  0
   -5.8948   14.5296  -12.9394 O   0  0  0  0  0  0  0  0  0  0  0  0
   -5.9610   10.4852   -7.7361 C   0  0  0  0  0  0  0  0  0  0  0  0
   -4.8098    9.7648   -8.0558 C   0  0  0  0  0  0  0  0  0  0  0  0
   -3.5520   10.3132   -7.8064 C   0  0  0  0  0  0  0  0  0  0  0  0
   -3.4430   11.5871   -7.2363 C   0  0  0  0  0  0  0  0  0  0  0  0
   -4.5944   12.3027   -6.9144 C   0  0  0  0  0  0  0  0  0  0  0  0
   -5.8504   11.7539   -7.1603 C   0  0  0  0  0  0  0  0  0  0  0  0
   -2.0991   12.1752   -6.9687 C   0  0  0  0  0  0  0  0  0  0  0  0
   -1.7663   13.4191   -6.4362 C   0  0  0  0  0  0  0  0  0  0  0  0
   -0.4291   13.4776   -6.3870 N   0  0  0  0  0  0  0  0  0  0  0  0
    0.1723   12.4029   -6.8190 N   0  0  0  0  0  0  0  0  0  0  0  0
   -0.8029   11.5945   -7.2007 C   0  0  0  0  0  0  0  0  0  0  0  0
    0.3904   14.5868   -5.9117 C   0  0  0  0  0  0  0  0  0  0  0  0
   -7.2799   12.9895  -11.8495 H   0  0  0  0  0  0  0  0  0  0  0  0
   -6.0966   12.3009   -9.8720 H   0  0  0  0  0  0  0  0  0  0  0  0
   -8.1900   10.1177  -13.8945 H   0  0  0  0  0  0  0  0  0  0  0  0
   -6.8945   12.2471  -14.0936 H   0  0  0  0  0  0  0  0  0  0  0  0
   -8.6289    7.9682   -9.4428 H   0  0  0  0  0  0  0  0  0  0  0  0
   -8.0374    9.6016   -7.2571 H   0  0  0  0  0  0  0  0  0  0  0  0
   -4.1641   12.8399  -10.9098 H   0  0  0  0  0  0  0  0  0  0  0  0
   -2.5387   14.5023  -10.9550 H   0  0  0  0  0  0  0  0  0  0  0  0
   -3.0724   14.8267  -12.6391 H   0  0  0  0  0  0  0  0  0  0  0  0
   -3.8811   15.6547  -11.2654 H   0  0  0  0  0  0  0  0  0  0  0  0
   -4.8927    8.7823   -8.4965 H   0  0  0  0  0  0  0  0  0  0  0  0
   -2.6613    9.7546   -8.0533 H   0  0  0  0  0  0  0  0  0  0  0  0
   -4.5126   13.2851   -6.4732 H   0  0  0  0  0  0  0  0  0  0  0  0
   -6.7407   12.3097   -6.9056 H   0  0  0  0  0  0  0  0  0  0  0  0
   -2.4554   14.1894   -6.1228 H   0  0  0  0  0  0  0  0  0  0  0  0
   -0.6455   10.6177   -7.6337 H   0  0  0  0  0  0  0  0  0  0  0  0
    1.4543   14.3214   -5.9997 H   0  0  0  0  0  0  0  0  0  0  0  0
    0.1843   15.4810   -6.5183 H   0  0  0  0  0  0  0  0  0  0  0  0
    0.1504   14.7949   -4.8586 H   0  0  0  0  0  0  0  0  0  0  0  0
  1  2  1  0  0  0  0
  1  4  1  0  0  0  0
  1 13  1  0  0  0  0
  2  6  2  0  0  0  0
  3  4  2  0  0  0  0
  3  5  1  0  0  0  0
  5  6  1  0  0  0  0
  5  9  2  0  0  0  0
  6  7  1  0  0  0  0
  7  8  1  0  0  0  0
  7 10  2  3  0  0  0
  8  9  1  0  0  0  0
 10 15  1  0  0  0  0
 11 12  1  0  0  0  0
 11 13  1  0  0  0  0
 13 14  2  0  0  0  0
 15 16  2  0  0  0  0
 15 20  1  0  0  0  0
 16 17  1  0  0  0  0
 17 18  2  0  0  0  0
 18 19  1  0  0  0  0
 18 21  1  0  0  0  0
 19 20  2  0  0  0  0
 21 22  2  0  0  0  0
 21 25  1  0  0  0  0
 22 23  1  0  0  0  0
 23 24  1  0  0  0  0
 23 26  1  0  0  0  0
 24 25  2  0  0  0  0
  1 27  1  0  0  0  0
  2 28  1  0  0  0  0
  3 29  1  0  0  0  0
  4 30  1  0  0  0  0
  8 31  1  0  0  0  0
 10 32  1  0  0  0  0
 11 33  1  0  0  0  0
 12 34  1  0  0  0  0
 12 35  1  0  0  0  0
 12 36  1  0  0  0  0
 16 37  1  0  0  0  0
 17 38  1  0  0  0  0
 19 39  1  0  0  0  0
 20 40  1  0  0  0  0
 22 41  1  0  0  0  0
 25 42  1  0  0  0  0
 26 43  1  0  0  0  0
 26 44  1  0  0  0  0
 26 45  1  0  0  0  0
M  END
> <Name>
19

> <IC50[uM]>
0.015

$$$$
19
  -OEChem-05192314333D
 Structure written by MMmdl.
 45 48  0     0  0  0  0  0  0999 V2000
   -6.3863   12.3686  -12.0106 C   0  0  0  0  0  0  0  0  0  0  0  0
   -6.5303   11.8179  -10.7351 C   0  0  0  0  0  0  0  0  0  0  0  0
   -7.7274   10.5747  -13.0322 C   0  0  0  0  0  0  0  0  0  0  0  0
   -6.9939   11.7717  -13.1290 C   0  0  0  0  0  0  0  0  0  0  0  0
   -7.8233   10.0108  -11.7572 C   0  0  0  0  0  0  0  0  0  0  0  0
   -7.2504   10.6246  -10.6026 C   0  0  0  0  0  0  0  0  0  0  0  0
   -7.6148    9.7488   -9.5126 C   0  0  0  0  0  0  0  0  0  0  0  0
   -8.2772    8.7301   -9.9866 N   0  0  0  0  0  0  0  0  0  0  0  0
   -8.4133    8.8585  -11.2996 N   0  0  0  0  0  0  0  0  0  0  0  0
   -7.3367    9.8906   -8.0265 C   0  0  0  0  0  0  0  0  0  0  0  0
   -4.3739   13.6178  -11.5022 N   0  0  0  0  0  0  0  0  0  0  0  0
   -3.4056   14.7196  -11.5963 C   0  0  0  0  0  0  0  0  0  0  0  0
   -5.5407   13.6198  -12.1903 C   0  0  0  0  0  0  0  0  0  0  0  0
   -5.8948   14.5296  -12.9394 O   0  0  0  0  0  0  0  0  0  0  0  0
   -5.9610   10.4852   -7.7361 C   0  0  0  0  0  0  0  0  0  0  0  0
   -4.8098    9.7648   -8.0558 C   0  0  0  0  0  0  0  0  0  0  0  0
   -3.5520   10.3132   -7.8064 C   0  0  0  0  0  0  0  0  0  0  0  0
   -3.4430   11.5871   -7.2363 C   0  0  0  0  0  0  0  0  0  0  0  0
   -4.5944   12.3027   -6.9144 C   0  0  0  0  0  0  0  0  0  0  0  0
   -5.8504   11.7539   -7.1603 C   0  0  0  0  0  0  0  0  0  0  0  0
   -2.0991   12.1752   -6.9687 C   0  0  0  0  0  0  0  0  0  0  0  0
   -1.7663   13.4191   -6.4362 C   0  0  0  0  0  0  0  0  0  0  0  0
   -0.4291   13.4776   -6.3870 N   0  0  0  0  0  0  0  0  0  0  0  0
    0.1723   12.4029   -6.8190 N   0  0  0  0  0  0  0  0  0  0  0  0
   -0.8029   11.5945   -7.2007 C   0  0  0  0  0  0  0  0  0  0  0  0
    0.3904   14.5868   -5.9117 C   0  0  0  0  0  0  0  0  0  0  0  0
   -6.0966   12.3009   -9.8720 H   0  0  0  0  0  0  0  0  0  0  0  0
   -8.7487   10.7774  -13.3871 H   0  0  0  0  0  0  0  0  0  0  0  0
   -7.2503    9.8346  -13.6914 H   0  0  0  0  0  0  0  0  0  0  0  0
   -6.8945   12.2471  -14.0936 H   0  0  0  0  0  0  0  0  0  0  0  0
   -8.6289    7.9682   -9.4428 H   0  0  0  0  0  0  0  0  0  0  0  0
   -8.0374    9.6016   -7.2571 H   0  0  0  0  0  0  0  0  0  0  0  0
   -4.1641   12.8399  -10.9098 H   0  0  0  0  0  0  0  0  0  0  0  0
   -2.5387   14.5023  -10.9550 H   0  0  0  0  0  0  0  0  0  0  0  0
   -3.0724   14.8267  -12.6391 H   0  0  0  0  0  0  0  0  0  0  0  0
   -3.8811   15.6547  -11.2654 H   0  0  0  0  0  0  0  0  0  0  0  0
   -4.8927    8.7823   -8.4965 H   0  0  0  0  0  0  0  0  0  0  0  0
   -2.6613    9.7546   -8.0533 H   0  0  0  0  0  0  0  0  0  0  0  0
   -4.5126   13.2851   -6.4732 H   0  0  0  0  0  0  0  0  0  0  0  0
   -6.7407   12.3097   -6.9056 H   0  0  0  0  0  0  0  0  0  0  0  0
   -2.4554   14.1894   -6.1228 H   0  0  0  0  0  0  0  0  0  0  0  0
   -0.6455   10.6177   -7.6337 H   0  0  0  0  0  0  0  0  0  0  0  0
    1.4543   14.3214   -5.9997 H   0  0  0  0  0  0  0  0  0  0  0  0
    0.1843   15.4810   -6.5183 H   0  0  0  0  0  0  0  0  0  0  0  0
    0.1504   14.7949   -4.8586 H   0  0  0  0  0  0  0  0  0  0  0  0
  1  2  1  0  0  0  0
  1  4  2  0  0  0  0
  1 13  1  0  0  0  0
  2  6  2  0  0  0  0
  3  4  1  0  0  0  0
  3  5  1  0  0  0  0
  5  6  1  0  0  0  0
  5  9  2  0  0  0  0
  6  7  1  0  0  0  0
  7  8  1  0  0  0  0
  7 10  2  3  0  0  0
  8  9  1  0  0  0  0
 10 15  1  0  0  0  0
 11 12  1  0  0  0  0
 11 13  1  0  0  0  0
 13 14  2  0  0  0  0
 15 16  2  0  0  0  0
 15 20  1  0  0  0  0
 16 17  1  0  0  0  0
 17 18  2  0  0  0  0
 18 19  1  0  0  0  0
 18 21  1  0  0  0  0
 19 20  2  0  0  0  0
 21 22  2  0  0  0  0
 21 25  1  0  0  0  0
 22 23  1  0  0  0  0
 23 24  1  0  0  0  0
 23 26  1  0  0  0  0
 24 25  2  0  0  0  0
  2 27  1  0  0  0  0
  3 28  1  0  0  0  0
  3 29  1  0  0  0  0
  4 30  1  0  0  0  0
  8 31  1  0  0  0  0
 10 32  1  0  0  0  0
 11 33  1  0  0  0  0
 12 34  1  0  0  0  0
 12 35  1  0  0  0  0
 12 36  1  0  0  0  0
 16 37  1  0  0  0  0
 17 38  1  0  0  0  0
 19 39  1  0  0  0  0
 20 40  1  0  0  0  0
 22 41  1  0  0  0  0
 25 42  1  0  0  0  0
 26 43  1  0  0  0  0
 26 44  1  0  0  0  0
 26 45  1  0  0  0  0
M  END
> <Name>
19

> <IC50[uM]>
0.015

$$$$
19
  -OEChem-05192314333D
 Structure written by MMmdl.
 45 48  0     1  0  0  0  0  0999 V2000
   -6.3863   12.3686  -12.0106 C   0  0  3  0  0  0  0  0  0  0  0  0
   -6.5303   11.8179  -10.7351 C   0  0  0  0  0  0  0  0  0  0  0  0
   -7.7274   10.5747  -13.0322 C   0  0  0  0  0  0  0  0  0  0  0  0
   -6.9939   11.7717  -13.1290 C   0  0  0  0  0  0  0  0  0  0  0  0
   -7.8233   10.0108  -11.7572 C   0  0  0  0  0  0  0  0  0  0  0  0
   -7.2504   10.6246  -10.6026 C   0  0  0  0  0  0  0  0  0  0  0  0
   -7.6148    9.7488   -9.5126 C   0  0  0  0  0  0  0  0  0  0  0  0
   -8.2772    8.7301   -9.9866 N   0  0  0  0  0  0  0  0  0  0  0  0
   -8.4133    8.8585  -11.2996 N   0  0  0  0  0  0  0  0  0  0  0  0
   -7.3367    9.8906   -8.0265 C   0  0  0  0  0  0  0  0  0  0  0  0
   -4.3739   13.6178  -11.5022 N   0  0  0  0  0  0  0  0  0  0  0  0
   -3.4056   14.7196  -11.5963 C   0  0  0  0  0  0  0  0  0  0  0  0
   -5.5407   13.6198  -12.1903 C   0  0  0  0  0  0  0  0  0  0  0  0
   -5.8948   14.5296  -12.9394 O   0  0  0  0  0  0  0  0  0  0  0  0
   -5.9610   10.4852   -7.7361 C   0  0  0  0  0  0  0  0  0  0  0  0
   -4.8098    9.7648   -8.0558 C   0  0  0  0  0  0  0  0  0  0  0  0
   -3.5520   10.3132   -7.8064 C   0  0  0  0  0  0  0  0  0  0  0  0
   -3.4430   11.5871   -7.2363 C   0  0  0  0  0  0  0  0  0  0  0  0
   -4.5944   12.3027   -6.9144 C   0  0  0  0  0  0  0  0  0  0  0  0
   -5.8504   11.7539   -7.1603 C   0  0  0  0  0  0  0  0  0  0  0  0
   -2.0991   12.1752   -6.9687 C   0  0  0  0  0  0  0  0  0  0  0  0
   -1.7663   13.4191   -6.4362 C   0  0  0  0  0  0  0  0  0  0  0  0
   -0.4291   13.4776   -6.3870 N   0  0  0  0  0  0  0  0  0  0  0  0
    0.1723   12.4029   -6.8190 N   0  0  0  0  0  0  0  0  0  0  0  0
   -0.8029   11.5945   -7.2007 C   0  0  0  0  0  0  0  0  0  0  0  0
    0.3904   14.5868   -5.9117 C   0  0  0  0  0  0  0  0  0  0  0  0
   -7.2799   12.9895  -11.8495 H   0  0  0  0  0  0  0  0  0  0  0  0
   -6.0966   12.3009   -9.8720 H   0  0  0  0  0  0  0  0  0  0  0  0
   -8.1900   10.1177  -13.8945 H   0  0  0  0  0  0  0  0  0  0  0  0
   -6.8945   12.2471  -14.0936 H   0  0  0  0  0  0  0  0  0  0  0  0
   -8.6289    7.9682   -9.4428 H   0  0  0  0  0  0  0  0  0  0  0  0
   -8.0374    9.6016   -7.2571 H   0  0  0  0  0  0  0  0  0  0  0  0
   -2.5387   14.5023  -10.9550 H   0  0  0  0  0  0  0  0  0  0  0  0
   -3.0724   14.8267  -12.6391 H   0  0  0  0  0  0  0  0  0  0  0  0
   -3.8811   15.6547  -11.2654 H   0  0  0  0  0  0  0  0  0  0  0  0
   -5.2461   15.2234  -12.9243 H   0  0  0  0  0  0  0  0  0  0  0  0
   -4.8927    8.7823   -8.4965 H   0  0  0  0  0  0  0  0  0  0  0  0
   -2.6613    9.7546   -8.0533 H   0  0  0  0  0  0  0  0  0  0  0  0
   -4.5126   13.2851   -6.4732 H   0  0  0  0  0  0  0  0  0  0  0  0
   -6.7407   12.3097   -6.9056 H   0  0  0  0  0  0  0  0  0  0  0  0
   -2.4554   14.1894   -6.1228 H   0  0  0  0  0  0  0  0  0  0  0  0
   -0.6455   10.6177   -7.6337 H   0  0  0  0  0  0  0  0  0  0  0  0
    1.4543   14.3214   -5.9997 H   0  0  0  0  0  0  0  0  0  0  0  0
    0.1843   15.4810   -6.5183 H   0  0  0  0  0  0  0  0  0  0  0  0
    0.1504   14.7949   -4.8586 H   0  0  0  0  0  0  0  0  0  0  0  0
  1  2  1  0  0  0  0
  1  4  1  0  0  0  0
  1 13  1  0  0  0  0
  2  6  2  0  0  0  0
  3  4  2  0  0  0  0
  3  5  1  0  0  0  0
  5  6  1  0  0  0  0
  5  9  2  0  0  0  0
  6  7  1  0  0  0  0
  7  8  1  0  0  0  0
  7 10  2  3  0  0  0
  8  9  1  0  0  0  0
 10 15  1  0  0  0  0
 11 12  1  0  0  0  0
 11 13  2  0  0  0  0
 13 14  1  0  0  0  0
 15 16  2  0  0  0  0
 15 20  1  0  0  0  0
 16 17  1  0  0  0  0
 17 18  2  0  0  0  0
 18 19  1  0  0  0  0
 18 21  1  0  0  0  0
 19 20  2  0  0  0  0
 21 22  2  0  0  0  0
 21 25  1  0  0  0  0
 22 23  1  0  0  0  0
 23 24  1  0  0  0  0
 23 26  1  0  0  0  0
 24 25  2  0  0  0  0
  1 27  1  0  0  0  0
  2 28  1  0  0  0  0
  3 29  1  0  0  0  0
  4 30  1  0  0  0  0
  8 31  1  0  0  0  0
 10 32  1  0  0  0  0
 12 33  1  0  0  0  0
 12 34  1  0  0  0  0
 12 35  1  0  0  0  0
 14 36  1  0  0  0  0
 16 37  1  0  0  0  0
 17 38  1  0  0  0  0
 19 39  1  0  0  0  0
 20 40  1  0  0  0  0
 22 41  1  0  0  0  0
 25 42  1  0  0  0  0
 26 43  1  0  0  0  0
 26 44  1  0  0  0  0
 26 45  1  0  0  0  0
M  END
> <Name>
19

> <IC50[uM]>
0.015

$$$$
19
  -OEChem-05192314333D
 Structure written by MMmdl.
 45 48  0     0  0  0  0  0  0999 V2000
   -6.3863   12.3686  -12.0106 C   0  0  0  0  0  0  0  0  0  0  0  0
   -6.5303   11.8179  -10.7351 C   0  0  0  0  0  0  0  0  0  0  0  0
   -7.7274   10.5747  -13.0322 C   0  0  0  0  0  0  0  0  0  0  0  0
   -6.9939   11.7717  -13.1290 C   0  0  0  0  0  0  0  0  0  0  0  0
   -7.8233   10.0108  -11.7572 C   0  0  0  0  0  0  0  0  0  0  0  0
   -7.2504   10.6246  -10.6026 C   0  0  0  0  0  0  0  0  0  0  0  0
   -7.6148    9.7488   -9.5126 C   0  0  0  0  0  0  0  0  0  0  0  0
   -8.2772    8.7301   -9.9866 N   0  0  0  0  0  0  0  0  0  0  0  0
   -8.4133    8.8585  -11.2996 N   0  0  0  0  0  0  0  0  0  0  0  0
   -7.3367    9.8906   -8.0265 C   0  0  0  0  0  0  0  0  0  0  0  0
   -4.3739   13.6178  -11.5022 N   0  0  0  0  0  0  0  0  0  0  0  0
   -3.4056   14.7196  -11.5963 C   0  0  0  0  0  0  0  0  0  0  0  0
   -5.5407   13.6198  -12.1903 C   0  0  0  0  0  0  0  0  0  0  0  0
   -5.8948   14.5296  -12.9394 O   0  0  0  0  0  0  0  0  0  0  0  0
   -5.9610   10.4852   -7.7361 C   0  0  0  0  0  0  0  0  0  0  0  0
   -4.8098    9.7648   -8.0558 C   0  0  0  0  0  0  0  0  0  0  0  0
   -3.5520   10.3132   -7.8064 C   0  0  0  0  0  0  0  0  0  0  0  0
   -3.4430   11.5871   -7.2363 C   0  0  0  0  0  0  0  0  0  0  0  0
   -4.5944   12.3027   -6.9144 C   0  0  0  0  0  0  0  0  0  0  0  0
   -5.8504   11.7539   -7.1603 C   0  0  0  0  0  0  0  0  0  0  0  0
   -2.0991   12.1752   -6.9687 C   0  0  0  0  0  0  0  0  0  0  0  0
   -1.7663   13.4191   -6.4362 C   0  0  0  0  0  0  0  0  0  0  0  0
   -0.4291   13.4776   -6.3870 N   0  0  0  0  0  0  0  0  0  0  0  0
    0.1723   12.4029   -6.8190 N   0  0  0  0  0  0  0  0  0  0  0  0
   -0.8029   11.5945   -7.2007 C   0  0  0  0  0  0  0  0  0  0  0  0
    0.3904   14.5868   -5.9117 C   0  0  0  0  0  0  0  0  0  0  0  0
   -6.0966   12.3009   -9.8720 H   0  0  0  0  0  0  0  0  0  0  0  0
   -8.7487   10.7774  -13.3871 H   0  0  0  0  0  0  0  0  0  0  0  0
   -7.2503    9.8346  -13.6914 H   0  0  0  0  0  0  0  0  0  0  0  0
   -6.8945   12.2471  -14.0936 H   0  0  0  0  0  0  0  0  0  0  0  0
   -8.6289    7.9682   -9.4428 H   0  0  0  0  0  0  0  0  0  0  0  0
   -8.0374    9.6016   -7.2571 H   0  0  0  0  0  0  0  0  0  0  0  0
   -2.5387   14.5023  -10.9550 H   0  0  0  0  0  0  0  0  0  0  0  0
   -3.0724   14.8267  -12.6391 H   0  0  0  0  0  0  0  0  0  0  0  0
   -3.8811   15.6547  -11.2654 H   0  0  0  0  0  0  0  0  0  0  0  0
   -5.2461   15.2234  -12.9243 H   0  0  0  0  0  0  0  0  0  0  0  0
   -4.8927    8.7823   -8.4965 H   0  0  0  0  0  0  0  0  0  0  0  0
   -2.6613    9.7546   -8.0533 H   0  0  0  0  0  0  0  0  0  0  0  0
   -4.5126   13.2851   -6.4732 H   0  0  0  0  0  0  0  0  0  0  0  0
   -6.7407   12.3097   -6.9056 H   0  0  0  0  0  0  0  0  0  0  0  0
   -2.4554   14.1894   -6.1228 H   0  0  0  0  0  0  0  0  0  0  0  0
   -0.6455   10.6177   -7.6337 H   0  0  0  0  0  0  0  0  0  0  0  0
    1.4543   14.3214   -5.9997 H   0  0  0  0  0  0  0  0  0  0  0  0
    0.1843   15.4810   -6.5183 H   0  0  0  0  0  0  0  0  0  0  0  0
    0.1504   14.7949   -4.8586 H   0  0  0  0  0  0  0  0  0  0  0  0
  1  2  1  0  0  0  0
  1  4  2  0  0  0  0
  1 13  1  0  0  0  0
  2  6  2  0  0  0  0
  3  4  1  0  0  0  0
  3  5  1  0  0  0  0
  5  6  1  0  0  0  0
  5  9  2  0  0  0  0
  6  7  1  0  0  0  0
  7  8  1  0  0  0  0
  7 10  2  3  0  0  0
  8  9  1  0  0  0  0
 10 15  1  0  0  0  0
 11 12  1  0  0  0  0
 11 13  2  0  0  0  0
 13 14  1  0  0  0  0
 15 16  2  0  0  0  0
 15 20  1  0  0  0  0
 16 17  1  0  0  0  0
 17 18  2  0  0  0  0
 18 19  1  0  0  0  0
 18 21  1  0  0  0  0
 19 20  2  0  0  0  0
 21 22  2  0  0  0  0
 21 25  1  0  0  0  0
 22 23  1  0  0  0  0
 23 24  1  0  0  0  0
 23 26  1  0  0  0  0
 24 25  2  0  0  0  0
  2 27  1  0  0  0  0
  3 28  1  0  0  0  0
  3 29  1  0  0  0  0
  4 30  1  0  0  0  0
  8 31  1  0  0  0  0
 10 32  1  0  0  0  0
 12 33  1  0  0  0  0
 12 34  1  0  0  0  0
 12 35  1  0  0  0  0
 14 36  1  0  0  0  0
 16 37  1  0  0  0  0
 17 38  1  0  0  0  0
 19 39  1  0  0  0  0
 20 40  1  0  0  0  0
 22 41  1  0  0  0  0
 25 42  1  0  0  0  0
 26 43  1  0  0  0  0
 26 44  1  0  0  0  0
 26 45  1  0  0  0  0
M  END
> <Name>
19

> <IC50[uM]>
0.015

$$$$
19
  -OEChem-05192314333D
 Structure written by MMmdl.
 45 48  0     1  0  0  0  0  0999 V2000
   -6.3863   12.3686  -12.0106 C   0  0  0  0  0  0  0  0  0  0  0  0
   -6.5303   11.8179  -10.7351 C   0  0  0  0  0  0  0  0  0  0  0  0
   -7.7274   10.5747  -13.0322 C   0  0  0  0  0  0  0  0  0  0  0  0
   -6.9939   11.7717  -13.1290 C   0  0  0  0  0  0  0  0  0  0  0  0
   -7.8233   10.0108  -11.7572 C   0  0  0  0  0  0  0  0  0  0  0  0
   -7.2504   10.6246  -10.6026 C   0  0  0  0  0  0  0  0  0  0  0  0
   -7.6148    9.7488   -9.5126 C   0  0  0  0  0  0  0  0  0  0  0  0
   -8.2772    8.7301   -9.9866 N   0  0  0  0  0  0  0  0  0  0  0  0
   -8.4133    8.8585  -11.2996 N   0  0  0  0  0  0  0  0  0  0  0  0
   -7.3367    9.8906   -8.0265 C   0  0  0  0  0  0  0  0  0  0  0  0
   -4.3739   13.6178  -11.5022 N   0  0  0  0  0  0  0  0  0  0  0  0
   -3.4056   14.7196  -11.5963 C   0  0  0  0  0  0  0  0  0  0  0  0
   -5.5407   13.6198  -12.1903 C   0  0  0  0  0  0  0  0  0  0  0  0
   -5.8948   14.5296  -12.9394 O   0  0  0  0  0  0  0  0  0  0  0  0
   -5.9610   10.4852   -7.7361 C   0  0  0  0  0  0  0  0  0  0  0  0
   -4.8098    9.7648   -8.0558 C   0  0  0  0  0  0  0  0  0  0  0  0
   -3.5520   10.3132   -7.8064 C   0  0  0  0  0  0  0  0  0  0  0  0
   -3.4430   11.5871   -7.2363 C   0  0  0  0  0  0  0  0  0  0  0  0
   -4.5944   12.3027   -6.9144 C   0  0  0  0  0  0  0  0  0  0  0  0
   -5.8504   11.7539   -7.1603 C   0  0  0  0  0  0  0  0  0  0  0  0
   -2.0991   12.1752   -6.9687 C   0  0  0  0  0  0  0  0  0  0  0  0
   -1.7663   13.4191   -6.4362 C   0  0  0  0  0  0  0  0  0  0  0  0
   -0.4291   13.4776   -6.3870 N   0  0  3  0  0  0  0  0  0  0  0  0
    0.1723   12.4029   -6.8190 N   0  0  0  0  0  0  0  0  0  0  0  0
   -0.8029   11.5945   -7.2007 C   0  0  0  0  0  0  0  0  0  0  0  0
    0.3904   14.5868   -5.9117 C   0  0  0  0  0  0  0  0  0  0  0  0
   -6.0966   12.3009   -9.8720 H   0  0  0  0  0  0  0  0  0  0  0  0
   -8.1900   10.1177  -13.8945 H   0  0  0  0  0  0  0  0  0  0  0  0
   -6.8945   12.2471  -14.0936 H   0  0  0  0  0  0  0  0  0  0  0  0
   -8.6289    7.9682   -9.4428 H   0  0  0  0  0  0  0  0  0  0  0  0
   -8.0374    9.6016   -7.2571 H   0  0  0  0  0  0  0  0  0  0  0  0
   -4.1641   12.8399  -10.9098 H   0  0  0  0  0  0  0  0  0  0  0  0
   -2.5387   14.5023  -10.9550 H   0  0  0  0  0  0  0  0  0  0  0  0
   -3.0724   14.8267  -12.6391 H   0  0  0  0  0  0  0  0  0  0  0  0
   -3.8811   15.6547  -11.2654 H   0  0  0  0  0  0  0  0  0  0  0  0
   -4.8927    8.7823   -8.4965 H   0  0  0  0  0  0  0  0  0  0  0  0
   -2.6613    9.7546   -8.0533 H   0  0  0  0  0  0  0  0  0  0  0  0
   -4.5126   13.2851   -6.4732 H   0  0  0  0  0  0  0  0  0  0  0  0
   -6.7407   12.3097   -6.9056 H   0  0  0  0  0  0  0  0  0  0  0  0
   -2.1564   14.2220   -7.0789 H   0  0  0  0  0  0  0  0  0  0  0  0
   -2.1866   13.5221   -5.4249 H   0  0  0  0  0  0  0  0  0  0  0  0
   -0.6455   10.6177   -7.6337 H   0  0  0  0  0  0  0  0  0  0  0  0
    1.4543   14.3214   -5.9997 H   0  0  0  0  0  0  0  0  0  0  0  0
    0.1843   15.4810   -6.5183 H   0  0  0  0  0  0  0  0  0  0  0  0
    0.1504   14.7949   -4.8586 H   0  0  0  0  0  0  0  0  0  0  0  0
  1  2  2  0  0  0  0
  1  4  1  0  0  0  0
  1 13  1  0  0  0  0
  2  6  1  0  0  0  0
  3  4  2  0  0  0  0
  3  5  1  0  0  0  0
  5  6  1  0  0  0  0
  5  9  2  0  0  0  0
  6  7  2  0  0  0  0
  7  8  1  0  0  0  0
  7 10  1  0  0  0  0
  8  9  1  0  0  0  0
 10 15  2  0  0  0  0
 11 12  1  0  0  0  0
 11 13  1  0  0  0  0
 13 14  2  0  0  0  0
 15 16  1  0  0  0  0
 15 20  1  0  0  0  0
 16 17  2  0  0  0  0
 17 18  1  0  0  0  0
 18 19  1  0  0  0  0
 18 21  2  0  0  0  0
 19 20  2  0  0  0  0
 21 22  1  0  0  0  0
 21 25  1  0  0  0  0
 22 23  1  0  0  0  0
 23 24  1  0  0  0  0
 23 26  1  0  0  0  0
 24 25  2  0  0  0  0
  2 27  1  0  0  0  0
  3 28  1  0  0  0  0
  4 29  1  0  0  0  0
  8 30  1  0  0  0  0
 10 31  1  0  0  0  0
 11 32  1  0  0  0  0
 12 33  1  0  0  0  0
 12 34  1  0  0  0  0
 12 35  1  0  0  0  0
 16 36  1  0  0  0  0
 17 37  1  0  0  0  0
 19 38  1  0  0  0  0
 20 39  1  0  0  0  0
 22 40  1  0  0  0  0
 22 41  1  0  0  0  0
 25 42  1  0  0  0  0
 26 43  1  0  0  0  0
 26 44  1  0  0  0  0
 26 45  1  0  0  0  0
M  END
> <Name>
19

> <IC50[uM]>
0.015

$$$$
19
  -OEChem-05192314333D
 Structure written by MMmdl.
 45 48  0     1  0  0  0  0  0999 V2000
   -6.3863   12.3686  -12.0106 C   0  0  0  0  0  0  0  0  0  0  0  0
   -6.5303   11.8179  -10.7351 C   0  0  0  0  0  0  0  0  0  0  0  0
   -7.7274   10.5747  -13.0322 C   0  0  0  0  0  0  0  0  0  0  0  0
   -6.9939   11.7717  -13.1290 C   0  0  0  0  0  0  0  0  0  0  0  0
   -7.8233   10.0108  -11.7572 C   0  0  0  0  0  0  0  0  0  0  0  0
   -7.2504   10.6246  -10.6026 C   0  0  0  0  0  0  0  0  0  0  0  0
   -7.6148    9.7488   -9.5126 C   0  0  0  0  0  0  0  0  0  0  0  0
   -8.2772    8.7301   -9.9866 N   0  0  0  0  0  0  0  0  0  0  0  0
   -8.4133    8.8585  -11.2996 N   0  0  0  0  0  0  0  0  0  0  0  0
   -7.3367    9.8906   -8.0265 C   0  0  0  0  0  0  0  0  0  0  0  0
   -4.3739   13.6178  -11.5022 N   0  0  0  0  0  0  0  0  0  0  0  0
   -3.4056   14.7196  -11.5963 C   0  0  0  0  0  0  0  0  0  0  0  0
   -5.5407   13.6198  -12.1903 C   0  0  0  0  0  0  0  0  0  0  0  0
   -5.8948   14.5296  -12.9394 O   0  0  0  0  0  0  0  0  0  0  0  0
   -5.9610   10.4852   -7.7361 C   0  0  0  0  0  0  0  0  0  0  0  0
   -4.8098    9.7648   -8.0558 C   0  0  0  0  0  0  0  0  0  0  0  0
   -3.5520   10.3132   -7.8064 C   0  0  0  0  0  0  0  0  0  0  0  0
   -3.4430   11.5871   -7.2363 C   0  0  0  0  0  0  0  0  0  0  0  0
   -4.5944   12.3027   -6.9144 C   0  0  0  0  0  0  0  0  0  0  0  0
   -5.8504   11.7539   -7.1603 C   0  0  0  0  0  0  0  0  0  0  0  0
   -2.0991   12.1752   -6.9687 C   0  0  0  0  0  0  0  0  0  0  0  0
   -1.7663   13.4191   -6.4362 C   0  0  0  0  0  0  0  0  0  0  0  0
   -0.4291   13.4776   -6.3870 N   0  0  3  0  0  0  0  0  0  0  0  0
    0.1723   12.4029   -6.8190 N   0  0  0  0  0  0  0  0  0  0  0  0
   -0.8029   11.5945   -7.2007 C   0  0  0  0  0  0  0  0  0  0  0  0
    0.3904   14.5868   -5.9117 C   0  0  0  0  0  0  0  0  0  0  0  0
   -6.0966   12.3009   -9.8720 H   0  0  0  0  0  0  0  0  0  0  0  0
   -8.1900   10.1177  -13.8945 H   0  0  0  0  0  0  0  0  0  0  0  0
   -6.8945   12.2471  -14.0936 H   0  0  0  0  0  0  0  0  0  0  0  0
   -8.8864    8.1986  -11.8833 H   0  0  0  0  0  0  0  0  0  0  0  0
   -8.0374    9.6016   -7.2571 H   0  0  0  0  0  0  0  0  0  0  0  0
   -4.1641   12.8399  -10.9098 H   0  0  0  0  0  0  0  0  0  0  0  0
   -2.5387   14.5023  -10.9550 H   0  0  0  0  0  0  0  0  0  0  0  0
   -3.0724   14.8267  -12.6391 H   0  0  0  0  0  0  0  0  0  0  0  0
   -3.8811   15.6547  -11.2654 H   0  0  0  0  0  0  0  0  0  0  0  0
   -4.8927    8.7823   -8.4965 H   0  0  0  0  0  0  0  0  0  0  0  0
   -2.6613    9.7546   -8.0533 H   0  0  0  0  0  0  0  0  0  0  0  0
   -4.5126   13.2851   -6.4732 H   0  0  0  0  0  0  0  0  0  0  0  0
   -6.7407   12.3097   -6.9056 H   0  0  0  0  0  0  0  0  0  0  0  0
   -2.1564   14.2220   -7.0789 H   0  0  0  0  0  0  0  0  0  0  0  0
   -2.1866   13.5221   -5.4249 H   0  0  0  0  0  0  0  0  0  0  0  0
   -0.6455   10.6177   -7.6337 H   0  0  0  0  0  0  0  0  0  0  0  0
    1.4543   14.3214   -5.9997 H   0  0  0  0  0  0  0  0  0  0  0  0
    0.1843   15.4810   -6.5183 H   0  0  0  0  0  0  0  0  0  0  0  0
    0.1504   14.7949   -4.8586 H   0  0  0  0  0  0  0  0  0  0  0  0
  1  2  2  0  0  0  0
  1  4  1  0  0  0  0
  1 13  1  0  0  0  0
  2  6  1  0  0  0  0
  3  4  2  0  0  0  0
  3  5  1  0  0  0  0
  5  6  2  0  0  0  0
  5  9  1  0  0  0  0
  6  7  1  0  0  0  0
  7  8  2  0  0  0  0
  7 10  1  0  0  0  0
  8  9  1  0  0  0  0
 10 15  2  0  0  0  0
 11 12  1  0  0  0  0
 11 13  1  0  0  0  0
 13 14  2  0  0  0  0
 15 16  1  0  0  0  0
 15 20  1  0  0  0  0
 16 17  2  0  0  0  0
 17 18  1  0  0  0  0
 18 19  1  0  0  0  0
 18 21  2  0  0  0  0
 19 20  2  0  0  0  0
 21 22  1  0  0  0  0
 21 25  1  0  0  0  0
 22 23  1  0  0  0  0
 23 24  1  0  0  0  0
 23 26  1  0  0  0  0
 24 25  2  0  0  0  0
  2 27  1  0  0  0  0
  3 28  1  0  0  0  0
  4 29  1  0  0  0  0
  9 30  1  0  0  0  0
 10 31  1  0  0  0  0
 11 32  1  0  0  0  0
 12 33  1  0  0  0  0
 12 34  1  0  0  0  0
 12 35  1  0  0  0  0
 16 36  1  0  0  0  0
 17 37  1  0  0  0  0
 19 38  1  0  0  0  0
 20 39  1  0  0  0  0
 22 40  1  0  0  0  0
 22 41  1  0  0  0  0
 25 42  1  0  0  0  0
 26 43  1  0  0  0  0
 26 44  1  0  0  0  0
 26 45  1  0  0  0  0
M  END
> <Name>
19

> <IC50[uM]>
0.015

$$$$
19
  -OEChem-05192314333D
 Structure written by MMmdl.
 45 48  0     1  0  0  0  0  0999 V2000
   -6.3863   12.3686  -12.0106 C   0  0  0  0  0  0  0  0  0  0  0  0
   -6.5303   11.8179  -10.7351 C   0  0  0  0  0  0  0  0  0  0  0  0
   -7.7274   10.5747  -13.0322 C   0  0  0  0  0  0  0  0  0  0  0  0
   -6.9939   11.7717  -13.1290 C   0  0  0  0  0  0  0  0  0  0  0  0
   -7.8233   10.0108  -11.7572 C   0  0  0  0  0  0  0  0  0  0  0  0
   -7.2504   10.6246  -10.6026 C   0  0  0  0  0  0  0  0  0  0  0  0
   -7.6148    9.7488   -9.5126 C   0  0  0  0  0  0  0  0  0  0  0  0
   -8.2772    8.7301   -9.9866 N   0  0  0  0  0  0  0  0  0  0  0  0
   -8.4133    8.8585  -11.2996 N   0  0  0  0  0  0  0  0  0  0  0  0
   -7.3367    9.8906   -8.0265 C   0  0  0  0  0  0  0  0  0  0  0  0
   -4.3739   13.6178  -11.5022 N   0  0  0  0  0  0  0  0  0  0  0  0
   -3.4056   14.7196  -11.5963 C   0  0  0  0  0  0  0  0  0  0  0  0
   -5.5407   13.6198  -12.1903 C   0  0  0  0  0  0  0  0  0  0  0  0
   -5.8948   14.5296  -12.9394 O   0  0  0  0  0  0  0  0  0  0  0  0
   -5.9610   10.4852   -7.7361 C   0  0  0  0  0  0  0  0  0  0  0  0
   -4.8098    9.7648   -8.0558 C   0  0  0  0  0  0  0  0  0  0  0  0
   -3.5520   10.3132   -7.8064 C   0  0  0  0  0  0  0  0  0  0  0  0
   -3.4430   11.5871   -7.2363 C   0  0  0  0  0  0  0  0  0  0  0  0
   -4.5944   12.3027   -6.9144 C   0  0  0  0  0  0  0  0  0  0  0  0
   -5.8504   11.7539   -7.1603 C   0  0  0  0  0  0  0  0  0  0  0  0
   -2.0991   12.1752   -6.9687 C   0  0  0  0  0  0  0  0  0  0  0  0
   -1.7663   13.4191   -6.4362 C   0  0  0  0  0  0  0  0  0  0  0  0
   -0.4291   13.4776   -6.3870 N   0  0  3  0  0  0  0  0  0  0  0  0
    0.1723   12.4029   -6.8190 N   0  0  0  0  0  0  0  0  0  0  0  0
   -0.8029   11.5945   -7.2007 C   0  0  0  0  0  0  0  0  0  0  0  0
    0.3904   14.5868   -5.9117 C   0  0  0  0  0  0  0  0  0  0  0  0
   -6.0966   12.3009   -9.8720 H   0  0  0  0  0  0  0  0  0  0  0  0
   -8.1900   10.1177  -13.8945 H   0  0  0  0  0  0  0  0  0  0  0  0
   -6.8945   12.2471  -14.0936 H   0  0  0  0  0  0  0  0  0  0  0  0
   -8.6289    7.9682   -9.4428 H   0  0  0  0  0  0  0  0  0  0  0  0
   -8.0374    9.6016   -7.2571 H   0  0  0  0  0  0  0  0  0  0  0  0
   -2.5387   14.5023  -10.9550 H   0  0  0  0  0  0  0  0  0  0  0  0
   -3.0724   14.8267  -12.6391 H   0  0  0  0  0  0  0  0  0  0  0  0
   -3.8811   15.6547  -11.2654 H   0  0  0  0  0  0  0  0  0  0  0  0
   -5.2461   15.2234  -12.9243 H   0  0  0  0  0  0  0  0  0  0  0  0
   -4.8927    8.7823   -8.4965 H   0  0  0  0  0  0  0  0  0  0  0  0
   -2.6613    9.7546   -8.0533 H   0  0  0  0  0  0  0  0  0  0  0  0
   -4.5126   13.2851   -6.4732 H   0  0  0  0  0  0  0  0  0  0  0  0
   -6.7407   12.3097   -6.9056 H   0  0  0  0  0  0  0  0  0  0  0  0
   -2.1564   14.2220   -7.0789 H   0  0  0  0  0  0  0  0  0  0  0  0
   -2.1866   13.5221   -5.4249 H   0  0  0  0  0  0  0  0  0  0  0  0
   -0.6455   10.6177   -7.6337 H   0  0  0  0  0  0  0  0  0  0  0  0
    1.4543   14.3214   -5.9997 H   0  0  0  0  0  0  0  0  0  0  0  0
    0.1843   15.4810   -6.5183 H   0  0  0  0  0  0  0  0  0  0  0  0
    0.1504   14.7949   -4.8586 H   0  0  0  0  0  0  0  0  0  0  0  0
  1  2  2  0  0  0  0
  1  4  1  0  0  0  0
  1 13  1  0  0  0  0
  2  6  1  0  0  0  0
  3  4  2  0  0  0  0
  3  5  1  0  0  0  0
  5  6  1  0  0  0  0
  5  9  2  0  0  0  0
  6  7  2  0  0  0  0
  7  8  1  0  0  0  0
  7 10  1  0  0  0  0
  8  9  1  0  0  0  0
 10 15  2  0  0  0  0
 11 12  1  0  0  0  0
 11 13  2  0  0  0  0
 13 14  1  0  0  0  0
 15 16  1  0  0  0  0
 15 20  1  0  0  0  0
 16 17  2  0  0  0  0
 17 18  1  0  0  0  0
 18 19  1  0  0  0  0
 18 21  2  0  0  0  0
 19 20  2  0  0  0  0
 21 22  1  0  0  0  0
 21 25  1  0  0  0  0
 22 23  1  0  0  0  0
 23 24  1  0  0  0  0
 23 26  1  0  0  0  0
 24 25  2  0  0  0  0
  2 27  1  0  0  0  0
  3 28  1  0  0  0  0
  4 29  1  0  0  0  0
  8 30  1  0  0  0  0
 10 31  1  0  0  0  0
 12 32  1  0  0  0  0
 12 33  1  0  0  0  0
 12 34  1  0  0  0  0
 14 35  1  0  0  0  0
 16 36  1  0  0  0  0
 17 37  1  0  0  0  0
 19 38  1  0  0  0  0
 20 39  1  0  0  0  0
 22 40  1  0  0  0  0
 22 41  1  0  0  0  0
 25 42  1  0  0  0  0
 26 43  1  0  0  0  0
 26 44  1  0  0  0  0
 26 45  1  0  0  0  0
M  END
> <Name>
19

> <IC50[uM]>
0.015

$$$$
19
  -OEChem-05192314333D
 Structure written by MMmdl.
 45 48  0     1  0  0  0  0  0999 V2000
   -6.3863   12.3686  -12.0106 C   0  0  0  0  0  0  0  0  0  0  0  0
   -6.5303   11.8179  -10.7351 C   0  0  0  0  0  0  0  0  0  0  0  0
   -7.7274   10.5747  -13.0322 C   0  0  0  0  0  0  0  0  0  0  0  0
   -6.9939   11.7717  -13.1290 C   0  0  0  0  0  0  0  0  0  0  0  0
   -7.8233   10.0108  -11.7572 C   0  0  0  0  0  0  0  0  0  0  0  0
   -7.2504   10.6246  -10.6026 C   0  0  0  0  0  0  0  0  0  0  0  0
   -7.6148    9.7488   -9.5126 C   0  0  0  0  0  0  0  0  0  0  0  0
   -8.2772    8.7301   -9.9866 N   0  0  0  0  0  0  0  0  0  0  0  0
   -8.4133    8.8585  -11.2996 N   0  0  0  0  0  0  0  0  0  0  0  0
   -7.3367    9.8906   -8.0265 C   0  0  0  0  0  0  0  0  0  0  0  0
   -4.3739   13.6178  -11.5022 N   0  0  0  0  0  0  0  0  0  0  0  0
   -3.4056   14.7196  -11.5963 C   0  0  0  0  0  0  0  0  0  0  0  0
   -5.5407   13.6198  -12.1903 C   0  0  0  0  0  0  0  0  0  0  0  0
   -5.8948   14.5296  -12.9394 O   0  0  0  0  0  0  0  0  0  0  0  0
   -5.9610   10.4852   -7.7361 C   0  0  0  0  0  0  0  0  0  0  0  0
   -4.8098    9.7648   -8.0558 C   0  0  0  0  0  0  0  0  0  0  0  0
   -3.5520   10.3132   -7.8064 C   0  0  0  0  0  0  0  0  0  0  0  0
   -3.4430   11.5871   -7.2363 C   0  0  0  0  0  0  0  0  0  0  0  0
   -4.5944   12.3027   -6.9144 C   0  0  0  0  0  0  0  0  0  0  0  0
   -5.8504   11.7539   -7.1603 C   0  0  0  0  0  0  0  0  0  0  0  0
   -2.0991   12.1752   -6.9687 C   0  0  0  0  0  0  0  0  0  0  0  0
   -1.7663   13.4191   -6.4362 C   0  0  0  0  0  0  0  0  0  0  0  0
   -0.4291   13.4776   -6.3870 N   0  0  3  0  0  0  0  0  0  0  0  0
    0.1723   12.4029   -6.8190 N   0  0  0  0  0  0  0  0  0  0  0  0
   -0.8029   11.5945   -7.2007 C   0  0  0  0  0  0  0  0  0  0  0  0
    0.3904   14.5868   -5.9117 C   0  0  0  0  0  0  0  0  0  0  0  0
   -6.0966   12.3009   -9.8720 H   0  0  0  0  0  0  0  0  0  0  0  0
   -8.1900   10.1177  -13.8945 H   0  0  0  0  0  0  0  0  0  0  0  0
   -6.8945   12.2471  -14.0936 H   0  0  0  0  0  0  0  0  0  0  0  0
   -8.8864    8.1986  -11.8833 H   0  0  0  0  0  0  0  0  0  0  0  0
   -8.0374    9.6016   -7.2571 H   0  0  0  0  0  0  0  0  0  0  0  0
   -2.5387   14.5023  -10.9550 H   0  0  0  0  0  0  0  0  0  0  0  0
   -3.0724   14.8267  -12.6391 H   0  0  0  0  0  0  0  0  0  0  0  0
   -3.8811   15.6547  -11.2654 H   0  0  0  0  0  0  0  0  0  0  0  0
   -5.2461   15.2234  -12.9243 H   0  0  0  0  0  0  0  0  0  0  0  0
   -4.8927    8.7823   -8.4965 H   0  0  0  0  0  0  0  0  0  0  0  0
   -2.6613    9.7546   -8.0533 H   0  0  0  0  0  0  0  0  0  0  0  0
   -4.5126   13.2851   -6.4732 H   0  0  0  0  0  0  0  0  0  0  0  0
   -6.7407   12.3097   -6.9056 H   0  0  0  0  0  0  0  0  0  0  0  0
   -2.1564   14.2220   -7.0789 H   0  0  0  0  0  0  0  0  0  0  0  0
   -2.1866   13.5221   -5.4249 H   0  0  0  0  0  0  0  0  0  0  0  0
   -0.6455   10.6177   -7.6337 H   0  0  0  0  0  0  0  0  0  0  0  0
    1.4543   14.3214   -5.9997 H   0  0  0  0  0  0  0  0  0  0  0  0
    0.1843   15.4810   -6.5183 H   0  0  0  0  0  0  0  0  0  0  0  0
    0.1504   14.7949   -4.8586 H   0  0  0  0  0  0  0  0  0  0  0  0
  1  2  2  0  0  0  0
  1  4  1  0  0  0  0
  1 13  1  0  0  0  0
  2  6  1  0  0  0  0
  3  4  2  0  0  0  0
  3  5  1  0  0  0  0
  5  6  2  0  0  0  0
  5  9  1  0  0  0  0
  6  7  1  0  0  0  0
  7  8  2  0  0  0  0
  7 10  1  0  0  0  0
  8  9  1  0  0  0  0
 10 15  2  0  0  0  0
 11 12  1  0  0  0  0
 11 13  2  0  0  0  0
 13 14  1  0  0  0  0
 15 16  1  0  0  0  0
 15 20  1  0  0  0  0
 16 17  2  0  0  0  0
 17 18  1  0  0  0  0
 18 19  1  0  0  0  0
 18 21  2  0  0  0  0
 19 20  2  0  0  0  0
 21 22  1  0  0  0  0
 21 25  1  0  0  0  0
 22 23  1  0  0  0  0
 23 24  1  0  0  0  0
 23 26  1  0  0  0  0
 24 25  2  0  0  0  0
  2 27  1  0  0  0  0
  3 28  1  0  0  0  0
  4 29  1  0  0  0  0
  9 30  1  0  0  0  0
 10 31  1  0  0  0  0
 12 32  1  0  0  0  0
 12 33  1  0  0  0  0
 12 34  1  0  0  0  0
 14 35  1  0  0  0  0
 16 36  1  0  0  0  0
 17 37  1  0  0  0  0
 19 38  1  0  0  0  0
 20 39  1  0  0  0  0
 22 40  1  0  0  0  0
 22 41  1  0  0  0  0
 25 42  1  0  0  0  0
 26 43  1  0  0  0  0
 26 44  1  0  0  0  0
 26 45  1  0  0  0  0
M  END
> <Name>
19

> <IC50[uM]>
0.015

$$$$
19
  -OEChem-05192314333D
 Structure written by MMmdl.
 45 48  0     0  0  0  0  0  0999 V2000
   -6.3863   12.3686  -12.0106 C   0  0  0  0  0  0  0  0  0  0  0  0
   -6.5303   11.8179  -10.7351 C   0  0  0  0  0  0  0  0  0  0  0  0
   -7.7274   10.5747  -13.0322 C   0  0  0  0  0  0  0  0  0  0  0  0
   -6.9939   11.7717  -13.1290 C   0  0  0  0  0  0  0  0  0  0  0  0
   -7.8233   10.0108  -11.7572 C   0  0  0  0  0  0  0  0  0  0  0  0
   -7.2504   10.6246  -10.6026 C   0  0  0  0  0  0  0  0  0  0  0  0
   -7.6148    9.7488   -9.5126 C   0  0  0  0  0  0  0  0  0  0  0  0
   -8.2772    8.7301   -9.9866 N   0  0  0  0  0  0  0  0  0  0  0  0
   -8.4133    8.8585  -11.2996 N   0  0  0  0  0  0  0  0  0  0  0  0
   -7.3367    9.8906   -8.0265 C   0  0  0  0  0  0  0  0  0  0  0  0
   -4.3739   13.6178  -11.5022 N   0  0  0  0  0  0  0  0  0  0  0  0
   -3.4056   14.7196  -11.5963 C   0  0  0  0  0  0  0  0  0  0  0  0
   -5.5407   13.6198  -12.1903 C   0  0  0  0  0  0  0  0  0  0  0  0
   -5.8948   14.5296  -12.9394 O   0  0  0  0  0  0  0  0  0  0  0  0
   -5.9610   10.4852   -7.7361 C   0  0  0  0  0  0  0  0  0  0  0  0
   -4.8098    9.7648   -8.0558 C   0  0  0  0  0  0  0  0  0  0  0  0
   -3.5520   10.3132   -7.8064 C   0  0  0  0  0  0  0  0  0  0  0  0
   -3.4430   11.5871   -7.2363 C   0  0  0  0  0  0  0  0  0  0  0  0
   -4.5944   12.3027   -6.9144 C   0  0  0  0  0  0  0  0  0  0  0  0
   -5.8504   11.7539   -7.1603 C   0  0  0  0  0  0  0  0  0  0  0  0
   -2.0991   12.1752   -6.9687 C   0  0  0  0  0  0  0  0  0  0  0  0
   -1.7663   13.4191   -6.4362 C   0  0  0  0  0  0  0  0  0  0  0  0
   -0.4291   13.4776   -6.3870 N   0  0  0  0  0  0  0  0  0  0  0  0
    0.1723   12.4029   -6.8190 N   0  0  0  0  0  0  0  0  0  0  0  0
   -0.8029   11.5945   -7.2007 C   0  0  0  0  0  0  0  0  0  0  0  0
    0.3904   14.5868   -5.9117 C   0  0  0  0  0  0  0  0  0  0  0  0
   -6.0966   12.3009   -9.8720 H   0  0  0  0  0  0  0  0  0  0  0  0
   -8.1900   10.1177  -13.8945 H   0  0  0  0  0  0  0  0  0  0  0  0
   -6.8945   12.2471  -14.0936 H   0  0  0  0  0  0  0  0  0  0  0  0
   -8.6289    7.9682   -9.4428 H   0  0  0  0  0  0  0  0  0  0  0  0
   -8.0374    9.6016   -7.2571 H   0  0  0  0  0  0  0  0  0  0  0  0
   -4.1641   12.8399  -10.9098 H   0  0  0  0  0  0  0  0  0  0  0  0
   -2.5387   14.5023  -10.9550 H   0  0  0  0  0  0  0  0  0  0  0  0
   -3.0724   14.8267  -12.6391 H   0  0  0  0  0  0  0  0  0  0  0  0
   -3.8811   15.6547  -11.2654 H   0  0  0  0  0  0  0  0  0  0  0  0
   -4.8927    8.7823   -8.4965 H   0  0  0  0  0  0  0  0  0  0  0  0
   -2.6613    9.7546   -8.0533 H   0  0  0  0  0  0  0  0  0  0  0  0
   -3.4418   12.0376   -8.2398 H   0  0  0  0  0  0  0  0  0  0  0  0
   -4.5126   13.2851   -6.4732 H   0  0  0  0  0  0  0  0  0  0  0  0
   -6.7407   12.3097   -6.9056 H   0  0  0  0  0  0  0  0  0  0  0  0
   -2.4554   14.1894   -6.1228 H   0  0  0  0  0  0  0  0  0  0  0  0
   -0.6455   10.6177   -7.6337 H   0  0  0  0  0  0  0  0  0  0  0  0
    1.4543   14.3214   -5.9997 H   0  0  0  0  0  0  0  0  0  0  0  0
    0.1843   15.4810   -6.5183 H   0  0  0  0  0  0  0  0  0  0  0  0
    0.1504   14.7949   -4.8586 H   0  0  0  0  0  0  0  0  0  0  0  0
  1  2  2  0  0  0  0
  1  4  1  0  0  0  0
  1 13  1  0  0  0  0
  2  6  1  0  0  0  0
  3  4  2  0  0  0  0
  3  5  1  0  0  0  0
  5  6  1  0  0  0  0
  5  9  2  0  0  0  0
  6  7  2  0  0  0  0
  7  8  1  0  0  0  0
  7 10  1  0  0  0  0
  8  9  1  0  0  0  0
 10 15  2  0  0  0  0
 11 12  1  0  0  0  0
 11 13  1  0  0  0  0
 13 14  2  0  0  0  0
 15 16  1  0  0  0  0
 15 20  1  0  0  0  0
 16 17  2  0  0  0  0
 17 18  1  0  0  0  0
 18 19  1  0  0  0  0
 18 21  1  0  0  0  0
 19 20  2  0  0  0  0
 21 22  2  0  0  0  0
 21 25  1  0  0  0  0
 22 23  1  0  0  0  0
 23 24  1  0  0  0  0
 23 26  1  0  0  0  0
 24 25  2  0  0  0  0
  2 27  1  0  0  0  0
  3 28  1  0  0  0  0
  4 29  1  0  0  0  0
  8 30  1  0  0  0  0
 10 31  1  0  0  0  0
 11 32  1  0  0  0  0
 12 33  1  0  0  0  0
 12 34  1  0  0  0  0
 12 35  1  0  0  0  0
 16 36  1  0  0  0  0
 17 37  1  0  0  0  0
 18 38  1  0  0  0  0
 19 39  1  0  0  0  0
 20 40  1  0  0  0  0
 22 41  1  0  0  0  0
 25 42  1  0  0  0  0
 26 43  1  0  0  0  0
 26 44  1  0  0  0  0
 26 45  1  0  0  0  0
M  END
> <Name>
19

> <IC50[uM]>
0.015

$$$$
19
  -OEChem-05192314333D
 Structure written by MMmdl.
 45 48  0     0  0  0  0  0  0999 V2000
   -6.3863   12.3686  -12.0106 C   0  0  0  0  0  0  0  0  0  0  0  0
   -6.5303   11.8179  -10.7351 C   0  0  0  0  0  0  0  0  0  0  0  0
   -7.7274   10.5747  -13.0322 C   0  0  0  0  0  0  0  0  0  0  0  0
   -6.9939   11.7717  -13.1290 C   0  0  0  0  0  0  0  0  0  0  0  0
   -7.8233   10.0108  -11.7572 C   0  0  0  0  0  0  0  0  0  0  0  0
   -7.2504   10.6246  -10.6026 C   0  0  0  0  0  0  0  0  0  0  0  0
   -7.6148    9.7488   -9.5126 C   0  0  0  0  0  0  0  0  0  0  0  0
   -8.2772    8.7301   -9.9866 N   0  0  0  0  0  0  0  0  0  0  0  0
   -8.4133    8.8585  -11.2996 N   0  0  0  0  0  0  0  0  0  0  0  0
   -7.3367    9.8906   -8.0265 C   0  0  0  0  0  0  0  0  0  0  0  0
   -4.3739   13.6178  -11.5022 N   0  0  0  0  0  0  0  0  0  0  0  0
   -3.4056   14.7196  -11.5963 C   0  0  0  0  0  0  0  0  0  0  0  0
   -5.5407   13.6198  -12.1903 C   0  0  0  0  0  0  0  0  0  0  0  0
   -5.8948   14.5296  -12.9394 O   0  0  0  0  0  0  0  0  0  0  0  0
   -5.9610   10.4852   -7.7361 C   0  0  0  0  0  0  0  0  0  0  0  0
   -4.8098    9.7648   -8.0558 C   0  0  0  0  0  0  0  0  0  0  0  0
   -3.5520   10.3132   -7.8064 C   0  0  0  0  0  0  0  0  0  0  0  0
   -3.4430   11.5871   -7.2363 C   0  0  0  0  0  0  0  0  0  0  0  0
   -4.5944   12.3027   -6.9144 C   0  0  0  0  0  0  0  0  0  0  0  0
   -5.8504   11.7539   -7.1603 C   0  0  0  0  0  0  0  0  0  0  0  0
   -2.0991   12.1752   -6.9687 C   0  0  0  0  0  0  0  0  0  0  0  0
   -1.7663   13.4191   -6.4362 C   0  0  0  0  0  0  0  0  0  0  0  0
   -0.4291   13.4776   -6.3870 N   0  0  0  0  0  0  0  0  0  0  0  0
    0.1723   12.4029   -6.8190 N   0  0  0  0  0  0  0  0  0  0  0  0
   -0.8029   11.5945   -7.2007 C   0  0  0  0  0  0  0  0  0  0  0  0
    0.3904   14.5868   -5.9117 C   0  0  0  0  0  0  0  0  0  0  0  0
   -6.0966   12.3009   -9.8720 H   0  0  0  0  0  0  0  0  0  0  0  0
   -8.1900   10.1177  -13.8945 H   0  0  0  0  0  0  0  0  0  0  0  0
   -6.8945   12.2471  -14.0936 H   0  0  0  0  0  0  0  0  0  0  0  0
   -8.8864    8.1986  -11.8833 H   0  0  0  0  0  0  0  0  0  0  0  0
   -8.0374    9.6016   -7.2571 H   0  0  0  0  0  0  0  0  0  0  0  0
   -4.1641   12.8399  -10.9098 H   0  0  0  0  0  0  0  0  0  0  0  0
   -2.5387   14.5023  -10.9550 H   0  0  0  0  0  0  0  0  0  0  0  0
   -3.0724   14.8267  -12.6391 H   0  0  0  0  0  0  0  0  0  0  0  0
   -3.8811   15.6547  -11.2654 H   0  0  0  0  0  0  0  0  0  0  0  0
   -4.8927    8.7823   -8.4965 H   0  0  0  0  0  0  0  0  0  0  0  0
   -2.6613    9.7546   -8.0533 H   0  0  0  0  0  0  0  0  0  0  0  0
   -3.4418   12.0376   -8.2398 H   0  0  0  0  0  0  0  0  0  0  0  0
   -4.5126   13.2851   -6.4732 H   0  0  0  0  0  0  0  0  0  0  0  0
   -6.7407   12.3097   -6.9056 H   0  0  0  0  0  0  0  0  0  0  0  0
   -2.4554   14.1894   -6.1228 H   0  0  0  0  0  0  0  0  0  0  0  0
   -0.6455   10.6177   -7.6337 H   0  0  0  0  0  0  0  0  0  0  0  0
    1.4543   14.3214   -5.9997 H   0  0  0  0  0  0  0  0  0  0  0  0
    0.1843   15.4810   -6.5183 H   0  0  0  0  0  0  0  0  0  0  0  0
    0.1504   14.7949   -4.8586 H   0  0  0  0  0  0  0  0  0  0  0  0
  1  2  2  0  0  0  0
  1  4  1  0  0  0  0
  1 13  1  0  0  0  0
  2  6  1  0  0  0  0
  3  4  2  0  0  0  0
  3  5  1  0  0  0  0
  5  6  2  0  0  0  0
  5  9  1  0  0  0  0
  6  7  1  0  0  0  0
  7  8  2  0  0  0  0
  7 10  1  0  0  0  0
  8  9  1  0  0  0  0
 10 15  2  0  0  0  0
 11 12  1  0  0  0  0
 11 13  1  0  0  0  0
 13 14  2  0  0  0  0
 15 16  1  0  0  0  0
 15 20  1  0  0  0  0
 16 17  2  0  0  0  0
 17 18  1  0  0  0  0
 18 19  1  0  0  0  0
 18 21  1  0  0  0  0
 19 20  2  0  0  0  0
 21 22  2  0  0  0  0
 21 25  1  0  0  0  0
 22 23  1  0  0  0  0
 23 24  1  0  0  0  0
 23 26  1  0  0  0  0
 24 25  2  0  0  0  0
  2 27  1  0  0  0  0
  3 28  1  0  0  0  0
  4 29  1  0  0  0  0
  9 30  1  0  0  0  0
 10 31  1  0  0  0  0
 11 32  1  0  0  0  0
 12 33  1  0  0  0  0
 12 34  1  0  0  0  0
 12 35  1  0  0  0  0
 16 36  1  0  0  0  0
 17 37  1  0  0  0  0
 18 38  1  0  0  0  0
 19 39  1  0  0  0  0
 20 40  1  0  0  0  0
 22 41  1  0  0  0  0
 25 42  1  0  0  0  0
 26 43  1  0  0  0  0
 26 44  1  0  0  0  0
 26 45  1  0  0  0  0
M  END
> <Name>
19

> <IC50[uM]>
0.015

$$$$
19
  -OEChem-05192314333D
 Structure written by MMmdl.
 45 48  0     0  0  0  0  0  0999 V2000
   -6.3863   12.3686  -12.0106 C   0  0  0  0  0  0  0  0  0  0  0  0
   -6.5303   11.8179  -10.7351 C   0  0  0  0  0  0  0  0  0  0  0  0
   -7.7274   10.5747  -13.0322 C   0  0  0  0  0  0  0  0  0  0  0  0
   -6.9939   11.7717  -13.1290 C   0  0  0  0  0  0  0  0  0  0  0  0
   -7.8233   10.0108  -11.7572 C   0  0  0  0  0  0  0  0  0  0  0  0
   -7.2504   10.6246  -10.6026 C   0  0  0  0  0  0  0  0  0  0  0  0
   -7.6148    9.7488   -9.5126 C   0  0  0  0  0  0  0  0  0  0  0  0
   -8.2772    8.7301   -9.9866 N   0  0  0  0  0  0  0  0  0  0  0  0
   -8.4133    8.8585  -11.2996 N   0  0  0  0  0  0  0  0  0  0  0  0
   -7.3367    9.8906   -8.0265 C   0  0  0  0  0  0  0  0  0  0  0  0
   -4.3739   13.6178  -11.5022 N   0  0  0  0  0  0  0  0  0  0  0  0
   -3.4056   14.7196  -11.5963 C   0  0  0  0  0  0  0  0  0  0  0  0
   -5.5407   13.6198  -12.1903 C   0  0  0  0  0  0  0  0  0  0  0  0
   -5.8948   14.5296  -12.9394 O   0  0  0  0  0  0  0  0  0  0  0  0
   -5.9610   10.4852   -7.7361 C   0  0  0  0  0  0  0  0  0  0  0  0
   -4.8098    9.7648   -8.0558 C   0  0  0  0  0  0  0  0  0  0  0  0
   -3.5520   10.3132   -7.8064 C   0  0  0  0  0  0  0  0  0  0  0  0
   -3.4430   11.5871   -7.2363 C   0  0  0  0  0  0  0  0  0  0  0  0
   -4.5944   12.3027   -6.9144 C   0  0  0  0  0  0  0  0  0  0  0  0
   -5.8504   11.7539   -7.1603 C   0  0  0  0  0  0  0  0  0  0  0  0
   -2.0991   12.1752   -6.9687 C   0  0  0  0  0  0  0  0  0  0  0  0
   -1.7663   13.4191   -6.4362 C   0  0  0  0  0  0  0  0  0  0  0  0
   -0.4291   13.4776   -6.3870 N   0  0  0  0  0  0  0  0  0  0  0  0
    0.1723   12.4029   -6.8190 N   0  0  0  0  0  0  0  0  0  0  0  0
   -0.8029   11.5945   -7.2007 C   0  0  0  0  0  0  0  0  0  0  0  0
    0.3904   14.5868   -5.9117 C   0  0  0  0  0  0  0  0  0  0  0  0
   -6.0966   12.3009   -9.8720 H   0  0  0  0  0  0  0  0  0  0  0  0
   -8.1900   10.1177  -13.8945 H   0  0  0  0  0  0  0  0  0  0  0  0
   -6.8945   12.2471  -14.0936 H   0  0  0  0  0  0  0  0  0  0  0  0
   -8.6289    7.9682   -9.4428 H   0  0  0  0  0  0  0  0  0  0  0  0
   -8.0374    9.6016   -7.2571 H   0  0  0  0  0  0  0  0  0  0  0  0
   -4.1641   12.8399  -10.9098 H   0  0  0  0  0  0  0  0  0  0  0  0
   -2.5387   14.5023  -10.9550 H   0  0  0  0  0  0  0  0  0  0  0  0
   -3.0724   14.8267  -12.6391 H   0  0  0  0  0  0  0  0  0  0  0  0
   -3.8811   15.6547  -11.2654 H   0  0  0  0  0  0  0  0  0  0  0  0
   -4.8927    8.7823   -8.4965 H   0  0  0  0  0  0  0  0  0  0  0  0
   -2.6613    9.7546   -8.0533 H   0  0  0  0  0  0  0  0  0  0  0  0
   -4.5126   13.2851   -6.4732 H   0  0  0  0  0  0  0  0  0  0  0  0
   -6.3761   12.4521   -7.8283 H   0  0  0  0  0  0  0  0  0  0  0  0
   -6.3718   11.7094   -6.1927 H   0  0  0  0  0  0  0  0  0  0  0  0
   -2.4554   14.1894   -6.1228 H   0  0  0  0  0  0  0  0  0  0  0  0
   -0.6455   10.6177   -7.6337 H   0  0  0  0  0  0  0  0  0  0  0  0
    1.4543   14.3214   -5.9997 H   0  0  0  0  0  0  0  0  0  0  0  0
    0.1843   15.4810   -6.5183 H   0  0  0  0  0  0  0  0  0  0  0  0
    0.1504   14.7949   -4.8586 H   0  0  0  0  0  0  0  0  0  0  0  0
  1  2  2  0  0  0  0
  1  4  1  0  0  0  0
  1 13  1  0  0  0  0
  2  6  1  0  0  0  0
  3  4  2  0  0  0  0
  3  5  1  0  0  0  0
  5  6  1  0  0  0  0
  5  9  2  0  0  0  0
  6  7  2  0  0  0  0
  7  8  1  0  0  0  0
  7 10  1  0  0  0  0
  8  9  1  0  0  0  0
 10 15  2  3  0  0  0
 11 12  1  0  0  0  0
 11 13  1  0  0  0  0
 13 14  2  0  0  0  0
 15 16  1  0  0  0  0
 15 20  1  0  0  0  0
 16 17  2  0  0  0  0
 17 18  1  0  0  0  0
 18 19  2  0  0  0  0
 18 21  1  0  0  0  0
 19 20  1  0  0  0  0
 21 22  2  0  0  0  0
 21 25  1  0  0  0  0
 22 23  1  0  0  0  0
 23 24  1  0  0  0  0
 23 26  1  0  0  0  0
 24 25  2  0  0  0  0
  2 27  1  0  0  0  0
  3 28  1  0  0  0  0
  4 29  1  0  0  0  0
  8 30  1  0  0  0  0
 10 31  1  0  0  0  0
 11 32  1  0  0  0  0
 12 33  1  0  0  0  0
 12 34  1  0  0  0  0
 12 35  1  0  0  0  0
 16 36  1  0  0  0  0
 17 37  1  0  0  0  0
 19 38  1  0  0  0  0
 20 39  1  0  0  0  0
 20 40  1  0  0  0  0
 22 41  1  0  0  0  0
 25 42  1  0  0  0  0
 26 43  1  0  0  0  0
 26 44  1  0  0  0  0
 26 45  1  0  0  0  0
M  END
> <Name>
19

> <IC50[uM]>
0.015

$$$$
19
  -OEChem-05192314333D
 Structure written by MMmdl.
 45 48  0     0  0  0  0  0  0999 V2000
   -6.3863   12.3686  -12.0106 C   0  0  0  0  0  0  0  0  0  0  0  0
   -6.5303   11.8179  -10.7351 C   0  0  0  0  0  0  0  0  0  0  0  0
   -7.7274   10.5747  -13.0322 C   0  0  0  0  0  0  0  0  0  0  0  0
   -6.9939   11.7717  -13.1290 C   0  0  0  0  0  0  0  0  0  0  0  0
   -7.8233   10.0108  -11.7572 C   0  0  0  0  0  0  0  0  0  0  0  0
   -7.2504   10.6246  -10.6026 C   0  0  0  0  0  0  0  0  0  0  0  0
   -7.6148    9.7488   -9.5126 C   0  0  0  0  0  0  0  0  0  0  0  0
   -8.2772    8.7301   -9.9866 N   0  0  0  0  0  0  0  0  0  0  0  0
   -8.4133    8.8585  -11.2996 N   0  0  0  0  0  0  0  0  0  0  0  0
   -7.3367    9.8906   -8.0265 C   0  0  0  0  0  0  0  0  0  0  0  0
   -4.3739   13.6178  -11.5022 N   0  0  0  0  0  0  0  0  0  0  0  0
   -3.4056   14.7196  -11.5963 C   0  0  0  0  0  0  0  0  0  0  0  0
   -5.5407   13.6198  -12.1903 C   0  0  0  0  0  0  0  0  0  0  0  0
   -5.8948   14.5296  -12.9394 O   0  0  0  0  0  0  0  0  0  0  0  0
   -5.9610   10.4852   -7.7361 C   0  0  0  0  0  0  0  0  0  0  0  0
   -4.8098    9.7648   -8.0558 C   0  0  0  0  0  0  0  0  0  0  0  0
   -3.5520   10.3132   -7.8064 C   0  0  0  0  0  0  0  0  0  0  0  0
   -3.4430   11.5871   -7.2363 C   0  0  0  0  0  0  0  0  0  0  0  0
   -4.5944   12.3027   -6.9144 C   0  0  0  0  0  0  0  0  0  0  0  0
   -5.8504   11.7539   -7.1603 C   0  0  0  0  0  0  0  0  0  0  0  0
   -2.0991   12.1752   -6.9687 C   0  0  0  0  0  0  0  0  0  0  0  0
   -1.7663   13.4191   -6.4362 C   0  0  0  0  0  0  0  0  0  0  0  0
   -0.4291   13.4776   -6.3870 N   0  0  0  0  0  0  0  0  0  0  0  0
    0.1723   12.4029   -6.8190 N   0  0  0  0  0  0  0  0  0  0  0  0
   -0.8029   11.5945   -7.2007 C   0  0  0  0  0  0  0  0  0  0  0  0
    0.3904   14.5868   -5.9117 C   0  0  0  0  0  0  0  0  0  0  0  0
   -6.0966   12.3009   -9.8720 H   0  0  0  0  0  0  0  0  0  0  0  0
   -8.1900   10.1177  -13.8945 H   0  0  0  0  0  0  0  0  0  0  0  0
   -6.8945   12.2471  -14.0936 H   0  0  0  0  0  0  0  0  0  0  0  0
   -8.8864    8.1986  -11.8833 H   0  0  0  0  0  0  0  0  0  0  0  0
   -8.0374    9.6016   -7.2571 H   0  0  0  0  0  0  0  0  0  0  0  0
   -4.1641   12.8399  -10.9098 H   0  0  0  0  0  0  0  0  0  0  0  0
   -2.5387   14.5023  -10.9550 H   0  0  0  0  0  0  0  0  0  0  0  0
   -3.0724   14.8267  -12.6391 H   0  0  0  0  0  0  0  0  0  0  0  0
   -3.8811   15.6547  -11.2654 H   0  0  0  0  0  0  0  0  0  0  0  0
   -4.8927    8.7823   -8.4965 H   0  0  0  0  0  0  0  0  0  0  0  0
   -2.6613    9.7546   -8.0533 H   0  0  0  0  0  0  0  0  0  0  0  0
   -4.5126   13.2851   -6.4732 H   0  0  0  0  0  0  0  0  0  0  0  0
   -6.3761   12.4521   -7.8283 H   0  0  0  0  0  0  0  0  0  0  0  0
   -6.3718   11.7094   -6.1927 H   0  0  0  0  0  0  0  0  0  0  0  0
   -2.4554   14.1894   -6.1228 H   0  0  0  0  0  0  0  0  0  0  0  0
   -0.6455   10.6177   -7.6337 H   0  0  0  0  0  0  0  0  0  0  0  0
    1.4543   14.3214   -5.9997 H   0  0  0  0  0  0  0  0  0  0  0  0
    0.1843   15.4810   -6.5183 H   0  0  0  0  0  0  0  0  0  0  0  0
    0.1504   14.7949   -4.8586 H   0  0  0  0  0  0  0  0  0  0  0  0
  1  2  2  0  0  0  0
  1  4  1  0  0  0  0
  1 13  1  0  0  0  0
  2  6  1  0  0  0  0
  3  4  2  0  0  0  0
  3  5  1  0  0  0  0
  5  6  2  0  0  0  0
  5  9  1  0  0  0  0
  6  7  1  0  0  0  0
  7  8  2  0  0  0  0
  7 10  1  0  0  0  0
  8  9  1  0  0  0  0
 10 15  2  3  0  0  0
 11 12  1  0  0  0  0
 11 13  1  0  0  0  0
 13 14  2  0  0  0  0
 15 16  1  0  0  0  0
 15 20  1  0  0  0  0
 16 17  2  0  0  0  0
 17 18  1  0  0  0  0
 18 19  2  0  0  0  0
 18 21  1  0  0  0  0
 19 20  1  0  0  0  0
 21 22  2  0  0  0  0
 21 25  1  0  0  0  0
 22 23  1  0  0  0  0
 23 24  1  0  0  0  0
 23 26  1  0  0  0  0
 24 25  2  0  0  0  0
  2 27  1  0  0  0  0
  3 28  1  0  0  0  0
  4 29  1  0  0  0  0
  9 30  1  0  0  0  0
 10 31  1  0  0  0  0
 11 32  1  0  0  0  0
 12 33  1  0  0  0  0
 12 34  1  0  0  0  0
 12 35  1  0  0  0  0
 16 36  1  0  0  0  0
 17 37  1  0  0  0  0
 19 38  1  0  0  0  0
 20 39  1  0  0  0  0
 20 40  1  0  0  0  0
 22 41  1  0  0  0  0
 25 42  1  0  0  0  0
 26 43  1  0  0  0  0
 26 44  1  0  0  0  0
 26 45  1  0  0  0  0
M  END
> <Name>
19

> <IC50[uM]>
0.015

$$$$
19
  -OEChem-05192314333D
 Structure written by MMmdl.
 45 48  0     0  0  0  0  0  0999 V2000
   -6.3863   12.3686  -12.0106 C   0  0  0  0  0  0  0  0  0  0  0  0
   -6.5303   11.8179  -10.7351 C   0  0  0  0  0  0  0  0  0  0  0  0
   -7.7274   10.5747  -13.0322 C   0  0  0  0  0  0  0  0  0  0  0  0
   -6.9939   11.7717  -13.1290 C   0  0  0  0  0  0  0  0  0  0  0  0
   -7.8233   10.0108  -11.7572 C   0  0  0  0  0  0  0  0  0  0  0  0
   -7.2504   10.6246  -10.6026 C   0  0  0  0  0  0  0  0  0  0  0  0
   -7.6148    9.7488   -9.5126 C   0  0  0  0  0  0  0  0  0  0  0  0
   -8.2772    8.7301   -9.9866 N   0  0  0  0  0  0  0  0  0  0  0  0
   -8.4133    8.8585  -11.2996 N   0  0  0  0  0  0  0  0  0  0  0  0
   -7.3367    9.8906   -8.0265 C   0  0  0  0  0  0  0  0  0  0  0  0
   -4.3739   13.6178  -11.5022 N   0  0  0  0  0  0  0  0  0  0  0  0
   -3.4056   14.7196  -11.5963 C   0  0  0  0  0  0  0  0  0  0  0  0
   -5.5407   13.6198  -12.1903 C   0  0  0  0  0  0  0  0  0  0  0  0
   -5.8948   14.5296  -12.9394 O   0  0  0  0  0  0  0  0  0  0  0  0
   -5.9610   10.4852   -7.7361 C   0  0  0  0  0  0  0  0  0  0  0  0
   -4.8098    9.7648   -8.0558 C   0  0  0  0  0  0  0  0  0  0  0  0
   -3.5520   10.3132   -7.8064 C   0  0  0  0  0  0  0  0  0  0  0  0
   -3.4430   11.5871   -7.2363 C   0  0  0  0  0  0  0  0  0  0  0  0
   -4.5944   12.3027   -6.9144 C   0  0  0  0  0  0  0  0  0  0  0  0
   -5.8504   11.7539   -7.1603 C   0  0  0  0  0  0  0  0  0  0  0  0
   -2.0991   12.1752   -6.9687 C   0  0  0  0  0  0  0  0  0  0  0  0
   -1.7663   13.4191   -6.4362 C   0  0  0  0  0  0  0  0  0  0  0  0
   -0.4291   13.4776   -6.3870 N   0  0  0  0  0  0  0  0  0  0  0  0
    0.1723   12.4029   -6.8190 N   0  0  0  0  0  0  0  0  0  0  0  0
   -0.8029   11.5945   -7.2007 C   0  0  0  0  0  0  0  0  0  0  0  0
    0.3904   14.5868   -5.9117 C   0  0  0  0  0  0  0  0  0  0  0  0
   -6.0966   12.3009   -9.8720 H   0  0  0  0  0  0  0  0  0  0  0  0
   -8.1900   10.1177  -13.8945 H   0  0  0  0  0  0  0  0  0  0  0  0
   -6.8945   12.2471  -14.0936 H   0  0  0  0  0  0  0  0  0  0  0  0
   -8.6289    7.9682   -9.4428 H   0  0  0  0  0  0  0  0  0  0  0  0
   -8.0374    9.6016   -7.2571 H   0  0  0  0  0  0  0  0  0  0  0  0
   -2.5387   14.5023  -10.9550 H   0  0  0  0  0  0  0  0  0  0  0  0
   -3.0724   14.8267  -12.6391 H   0  0  0  0  0  0  0  0  0  0  0  0
   -3.8811   15.6547  -11.2654 H   0  0  0  0  0  0  0  0  0  0  0  0
   -5.2461   15.2234  -12.9243 H   0  0  0  0  0  0  0  0  0  0  0  0
   -4.8927    8.7823   -8.4965 H   0  0  0  0  0  0  0  0  0  0  0  0
   -2.6613    9.7546   -8.0533 H   0  0  0  0  0  0  0  0  0  0  0  0
   -3.4418   12.0376   -8.2398 H   0  0  0  0  0  0  0  0  0  0  0  0
   -4.5126   13.2851   -6.4732 H   0  0  0  0  0  0  0  0  0  0  0  0
   -6.7407   12.3097   -6.9056 H   0  0  0  0  0  0  0  0  0  0  0  0
   -2.4554   14.1894   -6.1228 H   0  0  0  0  0  0  0  0  0  0  0  0
   -0.6455   10.6177   -7.6337 H   0  0  0  0  0  0  0  0  0  0  0  0
    1.4543   14.3214   -5.9997 H   0  0  0  0  0  0  0  0  0  0  0  0
    0.1843   15.4810   -6.5183 H   0  0  0  0  0  0  0  0  0  0  0  0
    0.1504   14.7949   -4.8586 H   0  0  0  0  0  0  0  0  0  0  0  0
  1  2  2  0  0  0  0
  1  4  1  0  0  0  0
  1 13  1  0  0  0  0
  2  6  1  0  0  0  0
  3  4  2  0  0  0  0
  3  5  1  0  0  0  0
  5  6  1  0  0  0  0
  5  9  2  0  0  0  0
  6  7  2  0  0  0  0
  7  8  1  0  0  0  0
  7 10  1  0  0  0  0
  8  9  1  0  0  0  0
 10 15  2  0  0  0  0
 11 12  1  0  0  0  0
 11 13  2  0  0  0  0
 13 14  1  0  0  0  0
 15 16  1  0  0  0  0
 15 20  1  0  0  0  0
 16 17  2  0  0  0  0
 17 18  1  0  0  0  0
 18 19  1  0  0  0  0
 18 21  1  0  0  0  0
 19 20  2  0  0  0  0
 21 22  2  0  0  0  0
 21 25  1  0  0  0  0
 22 23  1  0  0  0  0
 23 24  1  0  0  0  0
 23 26  1  0  0  0  0
 24 25  2  0  0  0  0
  2 27  1  0  0  0  0
  3 28  1  0  0  0  0
  4 29  1  0  0  0  0
  8 30  1  0  0  0  0
 10 31  1  0  0  0  0
 12 32  1  0  0  0  0
 12 33  1  0  0  0  0
 12 34  1  0  0  0  0
 14 35  1  0  0  0  0
 16 36  1  0  0  0  0
 17 37  1  0  0  0  0
 18 38  1  0  0  0  0
 19 39  1  0  0  0  0
 20 40  1  0  0  0  0
 22 41  1  0  0  0  0
 25 42  1  0  0  0  0
 26 43  1  0  0  0  0
 26 44  1  0  0  0  0
 26 45  1  0  0  0  0
M  END
> <Name>
19

> <IC50[uM]>
0.015

$$$$
19
  -OEChem-05192314333D
 Structure written by MMmdl.
 45 48  0     0  0  0  0  0  0999 V2000
   -6.3863   12.3686  -12.0106 C   0  0  0  0  0  0  0  0  0  0  0  0
   -6.5303   11.8179  -10.7351 C   0  0  0  0  0  0  0  0  0  0  0  0
   -7.7274   10.5747  -13.0322 C   0  0  0  0  0  0  0  0  0  0  0  0
   -6.9939   11.7717  -13.1290 C   0  0  0  0  0  0  0  0  0  0  0  0
   -7.8233   10.0108  -11.7572 C   0  0  0  0  0  0  0  0  0  0  0  0
   -7.2504   10.6246  -10.6026 C   0  0  0  0  0  0  0  0  0  0  0  0
   -7.6148    9.7488   -9.5126 C   0  0  0  0  0  0  0  0  0  0  0  0
   -8.2772    8.7301   -9.9866 N   0  0  0  0  0  0  0  0  0  0  0  0
   -8.4133    8.8585  -11.2996 N   0  0  0  0  0  0  0  0  0  0  0  0
   -7.3367    9.8906   -8.0265 C   0  0  0  0  0  0  0  0  0  0  0  0
   -4.3739   13.6178  -11.5022 N   0  0  0  0  0  0  0  0  0  0  0  0
   -3.4056   14.7196  -11.5963 C   0  0  0  0  0  0  0  0  0  0  0  0
   -5.5407   13.6198  -12.1903 C   0  0  0  0  0  0  0  0  0  0  0  0
   -5.8948   14.5296  -12.9394 O   0  0  0  0  0  0  0  0  0  0  0  0
   -5.9610   10.4852   -7.7361 C   0  0  0  0  0  0  0  0  0  0  0  0
   -4.8098    9.7648   -8.0558 C   0  0  0  0  0  0  0  0  0  0  0  0
   -3.5520   10.3132   -7.8064 C   0  0  0  0  0  0  0  0  0  0  0  0
   -3.4430   11.5871   -7.2363 C   0  0  0  0  0  0  0  0  0  0  0  0
   -4.5944   12.3027   -6.9144 C   0  0  0  0  0  0  0  0  0  0  0  0
   -5.8504   11.7539   -7.1603 C   0  0  0  0  0  0  0  0  0  0  0  0
   -2.0991   12.1752   -6.9687 C   0  0  0  0  0  0  0  0  0  0  0  0
   -1.7663   13.4191   -6.4362 C   0  0  0  0  0  0  0  0  0  0  0  0
   -0.4291   13.4776   -6.3870 N   0  0  0  0  0  0  0  0  0  0  0  0
    0.1723   12.4029   -6.8190 N   0  0  0  0  0  0  0  0  0  0  0  0
   -0.8029   11.5945   -7.2007 C   0  0  0  0  0  0  0  0  0  0  0  0
    0.3904   14.5868   -5.9117 C   0  0  0  0  0  0  0  0  0  0  0  0
   -6.0966   12.3009   -9.8720 H   0  0  0  0  0  0  0  0  0  0  0  0
   -8.1900   10.1177  -13.8945 H   0  0  0  0  0  0  0  0  0  0  0  0
   -6.8945   12.2471  -14.0936 H   0  0  0  0  0  0  0  0  0  0  0  0
   -8.8864    8.1986  -11.8833 H   0  0  0  0  0  0  0  0  0  0  0  0
   -8.0374    9.6016   -7.2571 H   0  0  0  0  0  0  0  0  0  0  0  0
   -2.5387   14.5023  -10.9550 H   0  0  0  0  0  0  0  0  0  0  0  0
   -3.0724   14.8267  -12.6391 H   0  0  0  0  0  0  0  0  0  0  0  0
   -3.8811   15.6547  -11.2654 H   0  0  0  0  0  0  0  0  0  0  0  0
   -5.2461   15.2234  -12.9243 H   0  0  0  0  0  0  0  0  0  0  0  0
   -4.8927    8.7823   -8.4965 H   0  0  0  0  0  0  0  0  0  0  0  0
   -2.6613    9.7546   -8.0533 H   0  0  0  0  0  0  0  0  0  0  0  0
   -3.4418   12.0376   -8.2398 H   0  0  0  0  0  0  0  0  0  0  0  0
   -4.5126   13.2851   -6.4732 H   0  0  0  0  0  0  0  0  0  0  0  0
   -6.7407   12.3097   -6.9056 H   0  0  0  0  0  0  0  0  0  0  0  0
   -2.4554   14.1894   -6.1228 H   0  0  0  0  0  0  0  0  0  0  0  0
   -0.6455   10.6177   -7.6337 H   0  0  0  0  0  0  0  0  0  0  0  0
    1.4543   14.3214   -5.9997 H   0  0  0  0  0  0  0  0  0  0  0  0
    0.1843   15.4810   -6.5183 H   0  0  0  0  0  0  0  0  0  0  0  0
    0.1504   14.7949   -4.8586 H   0  0  0  0  0  0  0  0  0  0  0  0
  1  2  2  0  0  0  0
  1  4  1  0  0  0  0
  1 13  1  0  0  0  0
  2  6  1  0  0  0  0
  3  4  2  0  0  0  0
  3  5  1  0  0  0  0
  5  6  2  0  0  0  0
  5  9  1  0  0  0  0
  6  7  1  0  0  0  0
  7  8  2  0  0  0  0
  7 10  1  0  0  0  0
  8  9  1  0  0  0  0
 10 15  2  0  0  0  0
 11 12  1  0  0  0  0
 11 13  2  0  0  0  0
 13 14  1  0  0  0  0
 15 16  1  0  0  0  0
 15 20  1  0  0  0  0
 16 17  2  0  0  0  0
 17 18  1  0  0  0  0
 18 19  1  0  0  0  0
 18 21  1  0  0  0  0
 19 20  2  0  0  0  0
 21 22  2  0  0  0  0
 21 25  1  0  0  0  0
 22 23  1  0  0  0  0
 23 24  1  0  0  0  0
 23 26  1  0  0  0  0
 24 25  2  0  0  0  0
  2 27  1  0  0  0  0
  3 28  1  0  0  0  0
  4 29  1  0  0  0  0
  9 30  1  0  0  0  0
 10 31  1  0  0  0  0
 12 32  1  0  0  0  0
 12 33  1  0  0  0  0
 12 34  1  0  0  0  0
 14 35  1  0  0  0  0
 16 36  1  0  0  0  0
 17 37  1  0  0  0  0
 18 38  1  0  0  0  0
 19 39  1  0  0  0  0
 20 40  1  0  0  0  0
 22 41  1  0  0  0  0
 25 42  1  0  0  0  0
 26 43  1  0  0  0  0
 26 44  1  0  0  0  0
 26 45  1  0  0  0  0
M  END
> <Name>
19

> <IC50[uM]>
0.015

$$$$
19
  -OEChem-05192314333D
 Structure written by MMmdl.
 45 48  0     0  0  0  0  0  0999 V2000
   -6.3863   12.3686  -12.0106 C   0  0  0  0  0  0  0  0  0  0  0  0
   -6.5303   11.8179  -10.7351 C   0  0  0  0  0  0  0  0  0  0  0  0
   -7.7274   10.5747  -13.0322 C   0  0  0  0  0  0  0  0  0  0  0  0
   -6.9939   11.7717  -13.1290 C   0  0  0  0  0  0  0  0  0  0  0  0
   -7.8233   10.0108  -11.7572 C   0  0  0  0  0  0  0  0  0  0  0  0
   -7.2504   10.6246  -10.6026 C   0  0  0  0  0  0  0  0  0  0  0  0
   -7.6148    9.7488   -9.5126 C   0  0  0  0  0  0  0  0  0  0  0  0
   -8.2772    8.7301   -9.9866 N   0  0  0  0  0  0  0  0  0  0  0  0
   -8.4133    8.8585  -11.2996 N   0  0  0  0  0  0  0  0  0  0  0  0
   -7.3367    9.8906   -8.0265 C   0  0  0  0  0  0  0  0  0  0  0  0
   -4.3739   13.6178  -11.5022 N   0  0  0  0  0  0  0  0  0  0  0  0
   -3.4056   14.7196  -11.5963 C   0  0  0  0  0  0  0  0  0  0  0  0
   -5.5407   13.6198  -12.1903 C   0  0  0  0  0  0  0  0  0  0  0  0
   -5.8948   14.5296  -12.9394 O   0  0  0  0  0  0  0  0  0  0  0  0
   -5.9610   10.4852   -7.7361 C   0  0  0  0  0  0  0  0  0  0  0  0
   -4.8098    9.7648   -8.0558 C   0  0  0  0  0  0  0  0  0  0  0  0
   -3.5520   10.3132   -7.8064 C   0  0  0  0  0  0  0  0  0  0  0  0
   -3.4430   11.5871   -7.2363 C   0  0  0  0  0  0  0  0  0  0  0  0
   -4.5944   12.3027   -6.9144 C   0  0  0  0  0  0  0  0  0  0  0  0
   -5.8504   11.7539   -7.1603 C   0  0  0  0  0  0  0  0  0  0  0  0
   -2.0991   12.1752   -6.9687 C   0  0  0  0  0  0  0  0  0  0  0  0
   -1.7663   13.4191   -6.4362 C   0  0  0  0  0  0  0  0  0  0  0  0
   -0.4291   13.4776   -6.3870 N   0  0  0  0  0  0  0  0  0  0  0  0
    0.1723   12.4029   -6.8190 N   0  0  0  0  0  0  0  0  0  0  0  0
   -0.8029   11.5945   -7.2007 C   0  0  0  0  0  0  0  0  0  0  0  0
    0.3904   14.5868   -5.9117 C   0  0  0  0  0  0  0  0  0  0  0  0
   -6.0966   12.3009   -9.8720 H   0  0  0  0  0  0  0  0  0  0  0  0
   -8.1900   10.1177  -13.8945 H   0  0  0  0  0  0  0  0  0  0  0  0
   -6.8945   12.2471  -14.0936 H   0  0  0  0  0  0  0  0  0  0  0  0
   -8.6289    7.9682   -9.4428 H   0  0  0  0  0  0  0  0  0  0  0  0
   -8.0374    9.6016   -7.2571 H   0  0  0  0  0  0  0  0  0  0  0  0
   -2.5387   14.5023  -10.9550 H   0  0  0  0  0  0  0  0  0  0  0  0
   -3.0724   14.8267  -12.6391 H   0  0  0  0  0  0  0  0  0  0  0  0
   -3.8811   15.6547  -11.2654 H   0  0  0  0  0  0  0  0  0  0  0  0
   -5.2461   15.2234  -12.9243 H   0  0  0  0  0  0  0  0  0  0  0  0
   -4.8927    8.7823   -8.4965 H   0  0  0  0  0  0  0  0  0  0  0  0
   -2.6613    9.7546   -8.0533 H   0  0  0  0  0  0  0  0  0  0  0  0
   -4.5126   13.2851   -6.4732 H   0  0  0  0  0  0  0  0  0  0  0  0
   -6.3761   12.4521   -7.8283 H   0  0  0  0  0  0  0  0  0  0  0  0
   -6.3718   11.7094   -6.1927 H   0  0  0  0  0  0  0  0  0  0  0  0
   -2.4554   14.1894   -6.1228 H   0  0  0  0  0  0  0  0  0  0  0  0
   -0.6455   10.6177   -7.6337 H   0  0  0  0  0  0  0  0  0  0  0  0
    1.4543   14.3214   -5.9997 H   0  0  0  0  0  0  0  0  0  0  0  0
    0.1843   15.4810   -6.5183 H   0  0  0  0  0  0  0  0  0  0  0  0
    0.1504   14.7949   -4.8586 H   0  0  0  0  0  0  0  0  0  0  0  0
  1  2  2  0  0  0  0
  1  4  1  0  0  0  0
  1 13  1  0  0  0  0
  2  6  1  0  0  0  0
  3  4  2  0  0  0  0
  3  5  1  0  0  0  0
  5  6  1  0  0  0  0
  5  9  2  0  0  0  0
  6  7  2  0  0  0  0
  7  8  1  0  0  0  0
  7 10  1  0  0  0  0
  8  9  1  0  0  0  0
 10 15  2  3  0  0  0
 11 12  1  0  0  0  0
 11 13  2  0  0  0  0
 13 14  1  0  0  0  0
 15 16  1  0  0  0  0
 15 20  1  0  0  0  0
 16 17  2  0  0  0  0
 17 18  1  0  0  0  0
 18 19  2  0  0  0  0
 18 21  1  0  0  0  0
 19 20  1  0  0  0  0
 21 22  2  0  0  0  0
 21 25  1  0  0  0  0
 22 23  1  0  0  0  0
 23 24  1  0  0  0  0
 23 26  1  0  0  0  0
 24 25  2  0  0  0  0
  2 27  1  0  0  0  0
  3 28  1  0  0  0  0
  4 29  1  0  0  0  0
  8 30  1  0  0  0  0
 10 31  1  0  0  0  0
 12 32  1  0  0  0  0
 12 33  1  0  0  0  0
 12 34  1  0  0  0  0
 14 35  1  0  0  0  0
 16 36  1  0  0  0  0
 17 37  1  0  0  0  0
 19 38  1  0  0  0  0
 20 39  1  0  0  0  0
 20 40  1  0  0  0  0
 22 41  1  0  0  0  0
 25 42  1  0  0  0  0
 26 43  1  0  0  0  0
 26 44  1  0  0  0  0
 26 45  1  0  0  0  0
M  END
> <Name>
19

> <IC50[uM]>
0.015

$$$$
19
  -OEChem-05192314333D
 Structure written by MMmdl.
 45 48  0     0  0  0  0  0  0999 V2000
   -6.3863   12.3686  -12.0106 C   0  0  0  0  0  0  0  0  0  0  0  0
   -6.5303   11.8179  -10.7351 C   0  0  0  0  0  0  0  0  0  0  0  0
   -7.7274   10.5747  -13.0322 C   0  0  0  0  0  0  0  0  0  0  0  0
   -6.9939   11.7717  -13.1290 C   0  0  0  0  0  0  0  0  0  0  0  0
   -7.8233   10.0108  -11.7572 C   0  0  0  0  0  0  0  0  0  0  0  0
   -7.2504   10.6246  -10.6026 C   0  0  0  0  0  0  0  0  0  0  0  0
   -7.6148    9.7488   -9.5126 C   0  0  0  0  0  0  0  0  0  0  0  0
   -8.2772    8.7301   -9.9866 N   0  0  0  0  0  0  0  0  0  0  0  0
   -8.4133    8.8585  -11.2996 N   0  0  0  0  0  0  0  0  0  0  0  0
   -7.3367    9.8906   -8.0265 C   0  0  0  0  0  0  0  0  0  0  0  0
   -4.3739   13.6178  -11.5022 N   0  0  0  0  0  0  0  0  0  0  0  0
   -3.4056   14.7196  -11.5963 C   0  0  0  0  0  0  0  0  0  0  0  0
   -5.5407   13.6198  -12.1903 C   0  0  0  0  0  0  0  0  0  0  0  0
   -5.8948   14.5296  -12.9394 O   0  0  0  0  0  0  0  0  0  0  0  0
   -5.9610   10.4852   -7.7361 C   0  0  0  0  0  0  0  0  0  0  0  0
   -4.8098    9.7648   -8.0558 C   0  0  0  0  0  0  0  0  0  0  0  0
   -3.5520   10.3132   -7.8064 C   0  0  0  0  0  0  0  0  0  0  0  0
   -3.4430   11.5871   -7.2363 C   0  0  0  0  0  0  0  0  0  0  0  0
   -4.5944   12.3027   -6.9144 C   0  0  0  0  0  0  0  0  0  0  0  0
   -5.8504   11.7539   -7.1603 C   0  0  0  0  0  0  0  0  0  0  0  0
   -2.0991   12.1752   -6.9687 C   0  0  0  0  0  0  0  0  0  0  0  0
   -1.7663   13.4191   -6.4362 C   0  0  0  0  0  0  0  0  0  0  0  0
   -0.4291   13.4776   -6.3870 N   0  0  0  0  0  0  0  0  0  0  0  0
    0.1723   12.4029   -6.8190 N   0  0  0  0  0  0  0  0  0  0  0  0
   -0.8029   11.5945   -7.2007 C   0  0  0  0  0  0  0  0  0  0  0  0
    0.3904   14.5868   -5.9117 C   0  0  0  0  0  0  0  0  0  0  0  0
   -6.0966   12.3009   -9.8720 H   0  0  0  0  0  0  0  0  0  0  0  0
   -8.1900   10.1177  -13.8945 H   0  0  0  0  0  0  0  0  0  0  0  0
   -6.8945   12.2471  -14.0936 H   0  0  0  0  0  0  0  0  0  0  0  0
   -8.8864    8.1986  -11.8833 H   0  0  0  0  0  0  0  0  0  0  0  0
   -8.0374    9.6016   -7.2571 H   0  0  0  0  0  0  0  0  0  0  0  0
   -2.5387   14.5023  -10.9550 H   0  0  0  0  0  0  0  0  0  0  0  0
   -3.0724   14.8267  -12.6391 H   0  0  0  0  0  0  0  0  0  0  0  0
   -3.8811   15.6547  -11.2654 H   0  0  0  0  0  0  0  0  0  0  0  0
   -5.2461   15.2234  -12.9243 H   0  0  0  0  0  0  0  0  0  0  0  0
   -4.8927    8.7823   -8.4965 H   0  0  0  0  0  0  0  0  0  0  0  0
   -2.6613    9.7546   -8.0533 H   0  0  0  0  0  0  0  0  0  0  0  0
   -4.5126   13.2851   -6.4732 H   0  0  0  0  0  0  0  0  0  0  0  0
   -6.3761   12.4521   -7.8283 H   0  0  0  0  0  0  0  0  0  0  0  0
   -6.3718   11.7094   -6.1927 H   0  0  0  0  0  0  0  0  0  0  0  0
   -2.4554   14.1894   -6.1228 H   0  0  0  0  0  0  0  0  0  0  0  0
   -0.6455   10.6177   -7.6337 H   0  0  0  0  0  0  0  0  0  0  0  0
    1.4543   14.3214   -5.9997 H   0  0  0  0  0  0  0  0  0  0  0  0
    0.1843   15.4810   -6.5183 H   0  0  0  0  0  0  0  0  0  0  0  0
    0.1504   14.7949   -4.8586 H   0  0  0  0  0  0  0  0  0  0  0  0
  1  2  2  0  0  0  0
  1  4  1  0  0  0  0
  1 13  1  0  0  0  0
  2  6  1  0  0  0  0
  3  4  2  0  0  0  0
  3  5  1  0  0  0  0
  5  6  2  0  0  0  0
  5  9  1  0  0  0  0
  6  7  1  0  0  0  0
  7  8  2  0  0  0  0
  7 10  1  0  0  0  0
  8  9  1  0  0  0  0
 10 15  2  3  0  0  0
 11 12  1  0  0  0  0
 11 13  2  0  0  0  0
 13 14  1  0  0  0  0
 15 16  1  0  0  0  0
 15 20  1  0  0  0  0
 16 17  2  0  0  0  0
 17 18  1  0  0  0  0
 18 19  2  0  0  0  0
 18 21  1  0  0  0  0
 19 20  1  0  0  0  0
 21 22  2  0  0  0  0
 21 25  1  0  0  0  0
 22 23  1  0  0  0  0
 23 24  1  0  0  0  0
 23 26  1  0  0  0  0
 24 25  2  0  0  0  0
  2 27  1  0  0  0  0
  3 28  1  0  0  0  0
  4 29  1  0  0  0  0
  9 30  1  0  0  0  0
 10 31  1  0  0  0  0
 12 32  1  0  0  0  0
 12 33  1  0  0  0  0
 12 34  1  0  0  0  0
 14 35  1  0  0  0  0
 16 36  1  0  0  0  0
 17 37  1  0  0  0  0
 19 38  1  0  0  0  0
 20 39  1  0  0  0  0
 20 40  1  0  0  0  0
 22 41  1  0  0  0  0
 25 42  1  0  0  0  0
 26 43  1  0  0  0  0
 26 44  1  0  0  0  0
 26 45  1  0  0  0  0
M  END
> <Name>
19

> <IC50[uM]>
0.015

$$$$
19
  -OEChem-05192314333D
 Structure written by MMmdl.
 45 48  0     1  0  0  0  0  0999 V2000
   -6.3863   12.3686  -12.0106 C   0  0  0  0  0  0  0  0  0  0  0  0
   -6.5303   11.8179  -10.7351 C   0  0  0  0  0  0  0  0  0  0  0  0
   -7.7274   10.5747  -13.0322 C   0  0  0  0  0  0  0  0  0  0  0  0
   -6.9939   11.7717  -13.1290 C   0  0  0  0  0  0  0  0  0  0  0  0
   -7.8233   10.0108  -11.7572 C   0  0  0  0  0  0  0  0  0  0  0  0
   -7.2504   10.6246  -10.6026 C   0  0  0  0  0  0  0  0  0  0  0  0
   -7.6148    9.7488   -9.5126 C   0  0  0  0  0  0  0  0  0  0  0  0
   -8.2772    8.7301   -9.9866 N   0  0  0  0  0  0  0  0  0  0  0  0
   -8.4133    8.8585  -11.2996 N   0  0  0  0  0  0  0  0  0  0  0  0
   -7.3367    9.8906   -8.0265 C   0  0  0  0  0  0  0  0  0  0  0  0
   -4.3739   13.6178  -11.5022 N   0  0  0  0  0  0  0  0  0  0  0  0
   -3.4056   14.7196  -11.5963 C   0  0  0  0  0  0  0  0  0  0  0  0
   -5.5407   13.6198  -12.1903 C   0  0  0  0  0  0  0  0  0  0  0  0
   -5.8948   14.5296  -12.9394 O   0  0  0  0  0  0  0  0  0  0  0  0
   -5.9610   10.4852   -7.7361 C   0  0  0  0  0  0  0  0  0  0  0  0
   -4.8098    9.7648   -8.0558 C   0  0  0  0  0  0  0  0  0  0  0  0
   -3.5520   10.3132   -7.8064 C   0  0  0  0  0  0  0  0  0  0  0  0
   -3.4430   11.5871   -7.2363 C   0  0  0  0  0  0  0  0  0  0  0  0
   -4.5944   12.3027   -6.9144 C   0  0  0  0  0  0  0  0  0  0  0  0
   -5.8504   11.7539   -7.1603 C   0  0  0  0  0  0  0  0  0  0  0  0
   -2.0991   12.1752   -6.9687 C   0  0  3  0  0  0  0  0  0  0  0  0
   -1.7663   13.4191   -6.4362 C   0  0  0  0  0  0  0  0  0  0  0  0
   -0.4291   13.4776   -6.3870 N   0  0  3  0  0  0  0  0  0  0  0  0
    0.1723   12.4029   -6.8190 N   0  0  0  0  0  0  0  0  0  0  0  0
   -0.8029   11.5945   -7.2007 C   0  0  0  0  0  0  0  0  0  0  0  0
    0.3904   14.5868   -5.9117 C   0  0  0  0  0  0  0  0  0  0  0  0
   -6.0966   12.3009   -9.8720 H   0  0  0  0  0  0  0  0  0  0  0  0
   -8.1900   10.1177  -13.8945 H   0  0  0  0  0  0  0  0  0  0  0  0
   -6.8945   12.2471  -14.0936 H   0  0  0  0  0  0  0  0  0  0  0  0
   -8.0374    9.6016   -7.2571 H   0  0  0  0  0  0  0  0  0  0  0  0
   -4.1641   12.8399  -10.9098 H   0  0  0  0  0  0  0  0  0  0  0  0
   -2.5387   14.5023  -10.9550 H   0  0  0  0  0  0  0  0  0  0  0  0
   -3.0724   14.8267  -12.6391 H   0  0  0  0  0  0  0  0  0  0  0  0
   -3.8811   15.6547  -11.2654 H   0  0  0  0  0  0  0  0  0  0  0  0
   -4.8927    8.7823   -8.4965 H   0  0  0  0  0  0  0  0  0  0  0  0
   -2.6613    9.7546   -8.0533 H   0  0  0  0  0  0  0  0  0  0  0  0
   -4.5126   13.2851   -6.4732 H   0  0  0  0  0  0  0  0  0  0  0  0
   -6.7407   12.3097   -6.9056 H   0  0  0  0  0  0  0  0  0  0  0  0
   -2.1115   11.7446   -5.9566 H   0  0  0  0  0  0  0  0  0  0  0  0
   -2.1564   14.2220   -7.0789 H   0  0  0  0  0  0  0  0  0  0  0  0
   -2.1866   13.5221   -5.4249 H   0  0  0  0  0  0  0  0  0  0  0  0
   -0.6455   10.6177   -7.6337 H   0  0  0  0  0  0  0  0  0  0  0  0
    1.4543   14.3214   -5.9997 H   0  0  0  0  0  0  0  0  0  0  0  0
    0.1843   15.4810   -6.5183 H   0  0  0  0  0  0  0  0  0  0  0  0
    0.1504   14.7949   -4.8586 H   0  0  0  0  0  0  0  0  0  0  0  0
  1  2  2  0  0  0  0
  1  4  1  0  0  0  0
  1 13  1  0  0  0  0
  2  6  1  0  0  0  0
  3  4  2  0  0  0  0
  3  5  1  0  0  0  0
  5  6  2  0  0  0  0
  5  9  1  0  0  0  0
  6  7  1  0  0  0  0
  7  8  1  0  0  0  0
  7 10  2  3  0  0  0
  8  9  2  0  0  0  0
 10 15  1  0  0  0  0
 11 12  1  0  0  0  0
 11 13  1  0  0  0  0
 13 14  2  0  0  0  0
 15 16  2  0  0  0  0
 15 20  1  0  0  0  0
 16 17  1  0  0  0  0
 17 18  2  0  0  0  0
 18 19  1  0  0  0  0
 18 21  1  0  0  0  0
 19 20  2  0  0  0  0
 21 22  1  0  0  0  0
 21 25  1  0  0  0  0
 22 23  1  0  0  0  0
 23 24  1  0  0  0  0
 23 26  1  0  0  0  0
 24 25  2  0  0  0  0
  2 27  1  0  0  0  0
  3 28  1  0  0  0  0
  4 29  1  0  0  0  0
 10 30  1  0  0  0  0
 11 31  1  0  0  0  0
 12 32  1  0  0  0  0
 12 33  1  0  0  0  0
 12 34  1  0  0  0  0
 16 35  1  0  0  0  0
 17 36  1  0  0  0  0
 19 37  1  0  0  0  0
 20 38  1  0  0  0  0
 21 39  1  0  0  0  0
 22 40  1  0  0  0  0
 22 41  1  0  0  0  0
 25 42  1  0  0  0  0
 26 43  1  0  0  0  0
 26 44  1  0  0  0  0
 26 45  1  0  0  0  0
M  END
> <Name>
19

> <IC50[uM]>
0.015

$$$$
19
  -OEChem-05192314333D
 Structure written by MMmdl.
 45 48  0     1  0  0  0  0  0999 V2000
   -6.3863   12.3686  -12.0106 C   0  0  0  0  0  0  0  0  0  0  0  0
   -6.5303   11.8179  -10.7351 C   0  0  0  0  0  0  0  0  0  0  0  0
   -7.7274   10.5747  -13.0322 C   0  0  0  0  0  0  0  0  0  0  0  0
   -6.9939   11.7717  -13.1290 C   0  0  0  0  0  0  0  0  0  0  0  0
   -7.8233   10.0108  -11.7572 C   0  0  0  0  0  0  0  0  0  0  0  0
   -7.2504   10.6246  -10.6026 C   0  0  0  0  0  0  0  0  0  0  0  0
   -7.6148    9.7488   -9.5126 C   0  0  0  0  0  0  0  0  0  0  0  0
   -8.2772    8.7301   -9.9866 N   0  0  0  0  0  0  0  0  0  0  0  0
   -8.4133    8.8585  -11.2996 N   0  0  0  0  0  0  0  0  0  0  0  0
   -7.3367    9.8906   -8.0265 C   0  0  0  0  0  0  0  0  0  0  0  0
   -4.3739   13.6178  -11.5022 N   0  0  0  0  0  0  0  0  0  0  0  0
   -3.4056   14.7196  -11.5963 C   0  0  0  0  0  0  0  0  0  0  0  0
   -5.5407   13.6198  -12.1903 C   0  0  0  0  0  0  0  0  0  0  0  0
   -5.8948   14.5296  -12.9394 O   0  0  0  0  0  0  0  0  0  0  0  0
   -5.9610   10.4852   -7.7361 C   0  0  0  0  0  0  0  0  0  0  0  0
   -4.8098    9.7648   -8.0558 C   0  0  0  0  0  0  0  0  0  0  0  0
   -3.5520   10.3132   -7.8064 C   0  0  0  0  0  0  0  0  0  0  0  0
   -3.4430   11.5871   -7.2363 C   0  0  0  0  0  0  0  0  0  0  0  0
   -4.5944   12.3027   -6.9144 C   0  0  0  0  0  0  0  0  0  0  0  0
   -5.8504   11.7539   -7.1603 C   0  0  0  0  0  0  0  0  0  0  0  0
   -2.0991   12.1752   -6.9687 C   0  0  3  0  0  0  0  0  0  0  0  0
   -1.7663   13.4191   -6.4362 C   0  0  0  0  0  0  0  0  0  0  0  0
   -0.4291   13.4776   -6.3870 N   0  0  3  0  0  0  0  0  0  0  0  0
    0.1723   12.4029   -6.8190 N   0  0  0  0  0  0  0  0  0  0  0  0
   -0.8029   11.5945   -7.2007 C   0  0  0  0  0  0  0  0  0  0  0  0
    0.3904   14.5868   -5.9117 C   0  0  0  0  0  0  0  0  0  0  0  0
   -6.0966   12.3009   -9.8720 H   0  0  0  0  0  0  0  0  0  0  0  0
   -8.1900   10.1177  -13.8945 H   0  0  0  0  0  0  0  0  0  0  0  0
   -6.8945   12.2471  -14.0936 H   0  0  0  0  0  0  0  0  0  0  0  0
   -8.0374    9.6016   -7.2571 H   0  0  0  0  0  0  0  0  0  0  0  0
   -2.5387   14.5023  -10.9550 H   0  0  0  0  0  0  0  0  0  0  0  0
   -3.0724   14.8267  -12.6391 H   0  0  0  0  0  0  0  0  0  0  0  0
   -3.8811   15.6547  -11.2654 H   0  0  0  0  0  0  0  0  0  0  0  0
   -5.2461   15.2234  -12.9243 H   0  0  0  0  0  0  0  0  0  0  0  0
   -4.8927    8.7823   -8.4965 H   0  0  0  0  0  0  0  0  0  0  0  0
   -2.6613    9.7546   -8.0533 H   0  0  0  0  0  0  0  0  0  0  0  0
   -4.5126   13.2851   -6.4732 H   0  0  0  0  0  0  0  0  0  0  0  0
   -6.7407   12.3097   -6.9056 H   0  0  0  0  0  0  0  0  0  0  0  0
   -2.1115   11.7446   -5.9566 H   0  0  0  0  0  0  0  0  0  0  0  0
   -2.1564   14.2220   -7.0789 H   0  0  0  0  0  0  0  0  0  0  0  0
   -2.1866   13.5221   -5.4249 H   0  0  0  0  0  0  0  0  0  0  0  0
   -0.6455   10.6177   -7.6337 H   0  0  0  0  0  0  0  0  0  0  0  0
    1.4543   14.3214   -5.9997 H   0  0  0  0  0  0  0  0  0  0  0  0
    0.1843   15.4810   -6.5183 H   0  0  0  0  0  0  0  0  0  0  0  0
    0.1504   14.7949   -4.8586 H   0  0  0  0  0  0  0  0  0  0  0  0
  1  2  2  0  0  0  0
  1  4  1  0  0  0  0
  1 13  1  0  0  0  0
  2  6  1  0  0  0  0
  3  4  2  0  0  0  0
  3  5  1  0  0  0  0
  5  6  2  0  0  0  0
  5  9  1  0  0  0  0
  6  7  1  0  0  0  0
  7  8  1  0  0  0  0
  7 10  2  3  0  0  0
  8  9  2  0  0  0  0
 10 15  1  0  0  0  0
 11 12  1  0  0  0  0
 11 13  2  0  0  0  0
 13 14  1  0  0  0  0
 15 16  2  0  0  0  0
 15 20  1  0  0  0  0
 16 17  1  0  0  0  0
 17 18  2  0  0  0  0
 18 19  1  0  0  0  0
 18 21  1  0  0  0  0
 19 20  2  0  0  0  0
 21 22  1  0  0  0  0
 21 25  1  0  0  0  0
 22 23  1  0  0  0  0
 23 24  1  0  0  0  0
 23 26  1  0  0  0  0
 24 25  2  0  0  0  0
  2 27  1  0  0  0  0
  3 28  1  0  0  0  0
  4 29  1  0  0  0  0
 10 30  1  0  0  0  0
 12 31  1  0  0  0  0
 12 32  1  0  0  0  0
 12 33  1  0  0  0  0
 14 34  1  0  0  0  0
 16 35  1  0  0  0  0
 17 36  1  0  0  0  0
 19 37  1  0  0  0  0
 20 38  1  0  0  0  0
 21 39  1  0  0  0  0
 22 40  1  0  0  0  0
 22 41  1  0  0  0  0
 25 42  1  0  0  0  0
 26 43  1  0  0  0  0
 26 44  1  0  0  0  0
 26 45  1  0  0  0  0
M  END
> <Name>
19

> <IC50[uM]>
0.015

$$$$
19
  -OEChem-05192314333D
 Structure written by MMmdl.
 45 48  0     1  0  0  0  0  0999 V2000
   -6.3863   12.3686  -12.0106 C   0  0  0  0  0  0  0  0  0  0  0  0
   -6.5303   11.8179  -10.7351 C   0  0  0  0  0  0  0  0  0  0  0  0
   -7.7274   10.5747  -13.0322 C   0  0  0  0  0  0  0  0  0  0  0  0
   -6.9939   11.7717  -13.1290 C   0  0  0  0  0  0  0  0  0  0  0  0
   -7.8233   10.0108  -11.7572 C   0  0  0  0  0  0  0  0  0  0  0  0
   -7.2504   10.6246  -10.6026 C   0  0  0  0  0  0  0  0  0  0  0  0
   -7.6148    9.7488   -9.5126 C   0  0  0  0  0  0  0  0  0  0  0  0
   -8.2772    8.7301   -9.9866 N   0  0  0  0  0  0  0  0  0  0  0  0
   -8.4133    8.8585  -11.2996 N   0  0  0  0  0  0  0  0  0  0  0  0
   -7.3367    9.8906   -8.0265 C   0  0  0  0  0  0  0  0  0  0  0  0
   -4.3739   13.6178  -11.5022 N   0  0  0  0  0  0  0  0  0  0  0  0
   -3.4056   14.7196  -11.5963 C   0  0  0  0  0  0  0  0  0  0  0  0
   -5.5407   13.6198  -12.1903 C   0  0  0  0  0  0  0  0  0  0  0  0
   -5.8948   14.5296  -12.9394 O   0  0  0  0  0  0  0  0  0  0  0  0
   -5.9610   10.4852   -7.7361 C   0  0  0  0  0  0  0  0  0  0  0  0
   -4.8098    9.7648   -8.0558 C   0  0  0  0  0  0  0  0  0  0  0  0
   -3.5520   10.3132   -7.8064 C   0  0  0  0  0  0  0  0  0  0  0  0
   -3.4430   11.5871   -7.2363 C   0  0  0  0  0  0  0  0  0  0  0  0
   -4.5944   12.3027   -6.9144 C   0  0  0  0  0  0  0  0  0  0  0  0
   -5.8504   11.7539   -7.1603 C   0  0  0  0  0  0  0  0  0  0  0  0
   -2.0991   12.1752   -6.9687 C   0  0  0  0  0  0  0  0  0  0  0  0
   -1.7663   13.4191   -6.4362 C   0  0  0  0  0  0  0  0  0  0  0  0
   -0.4291   13.4776   -6.3870 N   0  0  3  0  0  0  0  0  0  0  0  0
    0.1723   12.4029   -6.8190 N   0  0  0  0  0  0  0  0  0  0  0  0
   -0.8029   11.5945   -7.2007 C   0  0  0  0  0  0  0  0  0  0  0  0
    0.3904   14.5868   -5.9117 C   0  0  0  0  0  0  0  0  0  0  0  0
   -6.0966   12.3009   -9.8720 H   0  0  0  0  0  0  0  0  0  0  0  0
   -8.1900   10.1177  -13.8945 H   0  0  0  0  0  0  0  0  0  0  0  0
   -6.8945   12.2471  -14.0936 H   0  0  0  0  0  0  0  0  0  0  0  0
   -8.0374    9.6016   -7.2571 H   0  0  0  0  0  0  0  0  0  0  0  0
   -4.1641   12.8399  -10.9098 H   0  0  0  0  0  0  0  0  0  0  0  0
   -2.5387   14.5023  -10.9550 H   0  0  0  0  0  0  0  0  0  0  0  0
   -3.0724   14.8267  -12.6391 H   0  0  0  0  0  0  0  0  0  0  0  0
   -3.8811   15.6547  -11.2654 H   0  0  0  0  0  0  0  0  0  0  0  0
   -4.8927    8.7823   -8.4965 H   0  0  0  0  0  0  0  0  0  0  0  0
   -2.6613    9.7546   -8.0533 H   0  0  0  0  0  0  0  0  0  0  0  0
   -4.5126   13.2851   -6.4732 H   0  0  0  0  0  0  0  0  0  0  0  0
   -6.7407   12.3097   -6.9056 H   0  0  0  0  0  0  0  0  0  0  0  0
   -2.4554   14.1894   -6.1228 H   0  0  0  0  0  0  0  0  0  0  0  0
    0.7703   12.6208   -7.5903 H   0  0  0  0  0  0  0  0  0  0  0  0
   -0.7276   10.6539   -6.6354 H   0  0  0  0  0  0  0  0  0  0  0  0
   -0.6930   11.3863   -8.2752 H   0  0  0  0  0  0  0  0  0  0  0  0
    1.4543   14.3222   -6.0016 H   0  0  0  0  0  0  0  0  0  0  0  0
    0.1828   15.4815   -6.5170 H   0  0  0  0  0  0  0  0  0  0  0  0
    0.1519   14.7935   -4.8580 H   0  0  0  0  0  0  0  0  0  0  0  0
  1  2  2  0  0  0  0
  1  4  1  0  0  0  0
  1 13  1  0  0  0  0
  2  6  1  0  0  0  0
  3  4  2  0  0  0  0
  3  5  1  0  0  0  0
  5  6  2  0  0  0  0
  5  9  1  0  0  0  0
  6  7  1  0  0  0  0
  7  8  1  0  0  0  0
  7 10  2  3  0  0  0
  8  9  2  0  0  0  0
 10 15  1  0  0  0  0
 11 12  1  0  0  0  0
 11 13  1  0  0  0  0
 13 14  2  0  0  0  0
 15 16  2  0  0  0  0
 15 20  1  0  0  0  0
 16 17  1  0  0  0  0
 17 18  2  0  0  0  0
 18 19  1  0  0  0  0
 18 21  1  0  0  0  0
 19 20  2  0  0  0  0
 21 22  2  0  0  0  0
 21 25  1  0  0  0  0
 22 23  1  0  0  0  0
 23 24  1  0  0  0  0
 23 26  1  0  0  0  0
 24 25  1  0  0  0  0
  2 27  1  0  0  0  0
  3 28  1  0  0  0  0
  4 29  1  0  0  0  0
 10 30  1  0  0  0  0
 11 31  1  0  0  0  0
 12 32  1  0  0  0  0
 12 33  1  0  0  0  0
 12 34  1  0  0  0  0
 16 35  1  0  0  0  0
 17 36  1  0  0  0  0
 19 37  1  0  0  0  0
 20 38  1  0  0  0  0
 22 39  1  0  0  0  0
 24 40  1  0  0  0  0
 25 41  1  0  0  0  0
 25 42  1  0  0  0  0
 26 43  1  0  0  0  0
 26 44  1  0  0  0  0
 26 45  1  0  0  0  0
M  END
> <Name>
19

> <IC50[uM]>
0.015

$$$$
19
  -OEChem-05192314333D
 Structure written by MMmdl.
 45 48  0     1  0  0  0  0  0999 V2000
   -6.3863   12.3686  -12.0106 C   0  0  0  0  0  0  0  0  0  0  0  0
   -6.5303   11.8179  -10.7351 C   0  0  0  0  0  0  0  0  0  0  0  0
   -7.7274   10.5747  -13.0322 C   0  0  0  0  0  0  0  0  0  0  0  0
   -6.9939   11.7717  -13.1290 C   0  0  0  0  0  0  0  0  0  0  0  0
   -7.8233   10.0108  -11.7572 C   0  0  0  0  0  0  0  0  0  0  0  0
   -7.2504   10.6246  -10.6026 C   0  0  0  0  0  0  0  0  0  0  0  0
   -7.6148    9.7488   -9.5126 C   0  0  0  0  0  0  0  0  0  0  0  0
   -8.2772    8.7301   -9.9866 N   0  0  0  0  0  0  0  0  0  0  0  0
   -8.4133    8.8585  -11.2996 N   0  0  0  0  0  0  0  0  0  0  0  0
   -7.3367    9.8906   -8.0265 C   0  0  0  0  0  0  0  0  0  0  0  0
   -4.3739   13.6178  -11.5022 N   0  0  0  0  0  0  0  0  0  0  0  0
   -3.4056   14.7196  -11.5963 C   0  0  0  0  0  0  0  0  0  0  0  0
   -5.5407   13.6198  -12.1903 C   0  0  0  0  0  0  0  0  0  0  0  0
   -5.8948   14.5296  -12.9394 O   0  0  0  0  0  0  0  0  0  0  0  0
   -5.9610   10.4852   -7.7361 C   0  0  0  0  0  0  0  0  0  0  0  0
   -4.8098    9.7648   -8.0558 C   0  0  0  0  0  0  0  0  0  0  0  0
   -3.5520   10.3132   -7.8064 C   0  0  0  0  0  0  0  0  0  0  0  0
   -3.4430   11.5871   -7.2363 C   0  0  0  0  0  0  0  0  0  0  0  0
   -4.5944   12.3027   -6.9144 C   0  0  0  0  0  0  0  0  0  0  0  0
   -5.8504   11.7539   -7.1603 C   0  0  0  0  0  0  0  0  0  0  0  0
   -2.0991   12.1752   -6.9687 C   0  0  0  0  0  0  0  0  0  0  0  0
   -1.7663   13.4191   -6.4362 C   0  0  0  0  0  0  0  0  0  0  0  0
   -0.4291   13.4776   -6.3870 N   0  0  3  0  0  0  0  0  0  0  0  0
    0.1723   12.4029   -6.8190 N   0  0  0  0  0  0  0  0  0  0  0  0
   -0.8029   11.5945   -7.2007 C   0  0  0  0  0  0  0  0  0  0  0  0
    0.3904   14.5868   -5.9117 C   0  0  0  0  0  0  0  0  0  0  0  0
   -6.0966   12.3009   -9.8720 H   0  0  0  0  0  0  0  0  0  0  0  0
   -8.1900   10.1177  -13.8945 H   0  0  0  0  0  0  0  0  0  0  0  0
   -6.8945   12.2471  -14.0936 H   0  0  0  0  0  0  0  0  0  0  0  0
   -8.0374    9.6016   -7.2571 H   0  0  0  0  0  0  0  0  0  0  0  0
   -4.1641   12.8399  -10.9098 H   0  0  0  0  0  0  0  0  0  0  0  0
   -2.5387   14.5023  -10.9550 H   0  0  0  0  0  0  0  0  0  0  0  0
   -3.0724   14.8267  -12.6391 H   0  0  0  0  0  0  0  0  0  0  0  0
   -3.8811   15.6547  -11.2654 H   0  0  0  0  0  0  0  0  0  0  0  0
   -4.8927    8.7823   -8.4965 H   0  0  0  0  0  0  0  0  0  0  0  0
   -2.6613    9.7546   -8.0533 H   0  0  0  0  0  0  0  0  0  0  0  0
   -4.5126   13.2851   -6.4732 H   0  0  0  0  0  0  0  0  0  0  0  0
   -6.7407   12.3097   -6.9056 H   0  0  0  0  0  0  0  0  0  0  0  0
   -2.1564   14.2220   -7.0789 H   0  0  0  0  0  0  0  0  0  0  0  0
   -2.1866   13.5221   -5.4249 H   0  0  0  0  0  0  0  0  0  0  0  0
    0.7703   12.6208   -7.5903 H   0  0  0  0  0  0  0  0  0  0  0  0
   -0.6455   10.6177   -7.6337 H   0  0  0  0  0  0  0  0  0  0  0  0
    1.4543   14.3222   -6.0016 H   0  0  0  0  0  0  0  0  0  0  0  0
    0.1828   15.4815   -6.5170 H   0  0  0  0  0  0  0  0  0  0  0  0
    0.1519   14.7935   -4.8580 H   0  0  0  0  0  0  0  0  0  0  0  0
  1  2  2  0  0  0  0
  1  4  1  0  0  0  0
  1 13  1  0  0  0  0
  2  6  1  0  0  0  0
  3  4  2  0  0  0  0
  3  5  1  0  0  0  0
  5  6  2  0  0  0  0
  5  9  1  0  0  0  0
  6  7  1  0  0  0  0
  7  8  1  0  0  0  0
  7 10  2  3  0  0  0
  8  9  2  0  0  0  0
 10 15  1  0  0  0  0
 11 12  1  0  0  0  0
 11 13  1  0  0  0  0
 13 14  2  0  0  0  0
 15 16  2  0  0  0  0
 15 20  1  0  0  0  0
 16 17  1  0  0  0  0
 17 18  2  0  0  0  0
 18 19  1  0  0  0  0
 18 21  1  0  0  0  0
 19 20  2  0  0  0  0
 21 22  1  0  0  0  0
 21 25  2  0  0  0  0
 22 23  1  0  0  0  0
 23 24  1  0  0  0  0
 23 26  1  0  0  0  0
 24 25  1  0  0  0  0
  2 27  1  0  0  0  0
  3 28  1  0  0  0  0
  4 29  1  0  0  0  0
 10 30  1  0  0  0  0
 11 31  1  0  0  0  0
 12 32  1  0  0  0  0
 12 33  1  0  0  0  0
 12 34  1  0  0  0  0
 16 35  1  0  0  0  0
 17 36  1  0  0  0  0
 19 37  1  0  0  0  0
 20 38  1  0  0  0  0
 22 39  1  0  0  0  0
 22 40  1  0  0  0  0
 24 41  1  0  0  0  0
 25 42  1  0  0  0  0
 26 43  1  0  0  0  0
 26 44  1  0  0  0  0
 26 45  1  0  0  0  0
M  END
> <Name>
19

> <IC50[uM]>
0.015

$$$$
19
  -OEChem-05192314333D
 Structure written by MMmdl.
 45 48  0     1  0  0  0  0  0999 V2000
   -6.3863   12.3686  -12.0106 C   0  0  0  0  0  0  0  0  0  0  0  0
   -6.5303   11.8179  -10.7351 C   0  0  0  0  0  0  0  0  0  0  0  0
   -7.7274   10.5747  -13.0322 C   0  0  0  0  0  0  0  0  0  0  0  0
   -6.9939   11.7717  -13.1290 C   0  0  0  0  0  0  0  0  0  0  0  0
   -7.8233   10.0108  -11.7572 C   0  0  0  0  0  0  0  0  0  0  0  0
   -7.2504   10.6246  -10.6026 C   0  0  0  0  0  0  0  0  0  0  0  0
   -7.6148    9.7488   -9.5126 C   0  0  0  0  0  0  0  0  0  0  0  0
   -8.2772    8.7301   -9.9866 N   0  0  0  0  0  0  0  0  0  0  0  0
   -8.4133    8.8585  -11.2996 N   0  0  0  0  0  0  0  0  0  0  0  0
   -7.3367    9.8906   -8.0265 C   0  0  0  0  0  0  0  0  0  0  0  0
   -4.3739   13.6178  -11.5022 N   0  0  0  0  0  0  0  0  0  0  0  0
   -3.4056   14.7196  -11.5963 C   0  0  0  0  0  0  0  0  0  0  0  0
   -5.5407   13.6198  -12.1903 C   0  0  0  0  0  0  0  0  0  0  0  0
   -5.8948   14.5296  -12.9394 O   0  0  0  0  0  0  0  0  0  0  0  0
   -5.9610   10.4852   -7.7361 C   0  0  0  0  0  0  0  0  0  0  0  0
   -4.8098    9.7648   -8.0558 C   0  0  0  0  0  0  0  0  0  0  0  0
   -3.5520   10.3132   -7.8064 C   0  0  0  0  0  0  0  0  0  0  0  0
   -3.4430   11.5871   -7.2363 C   0  0  0  0  0  0  0  0  0  0  0  0
   -4.5944   12.3027   -6.9144 C   0  0  0  0  0  0  0  0  0  0  0  0
   -5.8504   11.7539   -7.1603 C   0  0  0  0  0  0  0  0  0  0  0  0
   -2.0991   12.1752   -6.9687 C   0  0  0  0  0  0  0  0  0  0  0  0
   -1.7663   13.4191   -6.4362 C   0  0  0  0  0  0  0  0  0  0  0  0
   -0.4291   13.4776   -6.3870 N   0  0  3  0  0  0  0  0  0  0  0  0
    0.1723   12.4029   -6.8190 N   0  0  0  0  0  0  0  0  0  0  0  0
   -0.8029   11.5945   -7.2007 C   0  0  0  0  0  0  0  0  0  0  0  0
    0.3904   14.5868   -5.9117 C   0  0  0  0  0  0  0  0  0  0  0  0
   -6.0966   12.3009   -9.8720 H   0  0  0  0  0  0  0  0  0  0  0  0
   -8.1900   10.1177  -13.8945 H   0  0  0  0  0  0  0  0  0  0  0  0
   -6.8945   12.2471  -14.0936 H   0  0  0  0  0  0  0  0  0  0  0  0
   -8.0374    9.6016   -7.2571 H   0  0  0  0  0  0  0  0  0  0  0  0
   -2.5387   14.5023  -10.9550 H   0  0  0  0  0  0  0  0  0  0  0  0
   -3.0724   14.8267  -12.6391 H   0  0  0  0  0  0  0  0  0  0  0  0
   -3.8811   15.6547  -11.2654 H   0  0  0  0  0  0  0  0  0  0  0  0
   -5.2461   15.2234  -12.9243 H   0  0  0  0  0  0  0  0  0  0  0  0
   -4.8927    8.7823   -8.4965 H   0  0  0  0  0  0  0  0  0  0  0  0
   -2.6613    9.7546   -8.0533 H   0  0  0  0  0  0  0  0  0  0  0  0
   -4.5126   13.2851   -6.4732 H   0  0  0  0  0  0  0  0  0  0  0  0
   -6.7407   12.3097   -6.9056 H   0  0  0  0  0  0  0  0  0  0  0  0
   -2.4554   14.1894   -6.1228 H   0  0  0  0  0  0  0  0  0  0  0  0
    0.7703   12.6208   -7.5903 H   0  0  0  0  0  0  0  0  0  0  0  0
   -0.7276   10.6539   -6.6354 H   0  0  0  0  0  0  0  0  0  0  0  0
   -0.6930   11.3863   -8.2752 H   0  0  0  0  0  0  0  0  0  0  0  0
    1.4543   14.3222   -6.0016 H   0  0  0  0  0  0  0  0  0  0  0  0
    0.1828   15.4815   -6.5170 H   0  0  0  0  0  0  0  0  0  0  0  0
    0.1519   14.7935   -4.8580 H   0  0  0  0  0  0  0  0  0  0  0  0
  1  2  2  0  0  0  0
  1  4  1  0  0  0  0
  1 13  1  0  0  0  0
  2  6  1  0  0  0  0
  3  4  2  0  0  0  0
  3  5  1  0  0  0  0
  5  6  2  0  0  0  0
  5  9  1  0  0  0  0
  6  7  1  0  0  0  0
  7  8  1  0  0  0  0
  7 10  2  3  0  0  0
  8  9  2  0  0  0  0
 10 15  1  0  0  0  0
 11 12  1  0  0  0  0
 11 13  2  0  0  0  0
 13 14  1  0  0  0  0
 15 16  2  0  0  0  0
 15 20  1  0  0  0  0
 16 17  1  0  0  0  0
 17 18  2  0  0  0  0
 18 19  1  0  0  0  0
 18 21  1  0  0  0  0
 19 20  2  0  0  0  0
 21 22  2  0  0  0  0
 21 25  1  0  0  0  0
 22 23  1  0  0  0  0
 23 24  1  0  0  0  0
 23 26  1  0  0  0  0
 24 25  1  0  0  0  0
  2 27  1  0  0  0  0
  3 28  1  0  0  0  0
  4 29  1  0  0  0  0
 10 30  1  0  0  0  0
 12 31  1  0  0  0  0
 12 32  1  0  0  0  0
 12 33  1  0  0  0  0
 14 34  1  0  0  0  0
 16 35  1  0  0  0  0
 17 36  1  0  0  0  0
 19 37  1  0  0  0  0
 20 38  1  0  0  0  0
 22 39  1  0  0  0  0
 24 40  1  0  0  0  0
 25 41  1  0  0  0  0
 25 42  1  0  0  0  0
 26 43  1  0  0  0  0
 26 44  1  0  0  0  0
 26 45  1  0  0  0  0
M  END
> <Name>
19

> <IC50[uM]>
0.015

$$$$
19
  -OEChem-05192314333D
 Structure written by MMmdl.
 45 48  0     1  0  0  0  0  0999 V2000
   -6.3863   12.3686  -12.0106 C   0  0  0  0  0  0  0  0  0  0  0  0
   -6.5303   11.8179  -10.7351 C   0  0  0  0  0  0  0  0  0  0  0  0
   -7.7274   10.5747  -13.0322 C   0  0  0  0  0  0  0  0  0  0  0  0
   -6.9939   11.7717  -13.1290 C   0  0  0  0  0  0  0  0  0  0  0  0
   -7.8233   10.0108  -11.7572 C   0  0  0  0  0  0  0  0  0  0  0  0
   -7.2504   10.6246  -10.6026 C   0  0  0  0  0  0  0  0  0  0  0  0
   -7.6148    9.7488   -9.5126 C   0  0  0  0  0  0  0  0  0  0  0  0
   -8.2772    8.7301   -9.9866 N   0  0  0  0  0  0  0  0  0  0  0  0
   -8.4133    8.8585  -11.2996 N   0  0  0  0  0  0  0  0  0  0  0  0
   -7.3367    9.8906   -8.0265 C   0  0  0  0  0  0  0  0  0  0  0  0
   -4.3739   13.6178  -11.5022 N   0  0  0  0  0  0  0  0  0  0  0  0
   -3.4056   14.7196  -11.5963 C   0  0  0  0  0  0  0  0  0  0  0  0
   -5.5407   13.6198  -12.1903 C   0  0  0  0  0  0  0  0  0  0  0  0
   -5.8948   14.5296  -12.9394 O   0  0  0  0  0  0  0  0  0  0  0  0
   -5.9610   10.4852   -7.7361 C   0  0  0  0  0  0  0  0  0  0  0  0
   -4.8098    9.7648   -8.0558 C   0  0  0  0  0  0  0  0  0  0  0  0
   -3.5520   10.3132   -7.8064 C   0  0  0  0  0  0  0  0  0  0  0  0
   -3.4430   11.5871   -7.2363 C   0  0  0  0  0  0  0  0  0  0  0  0
   -4.5944   12.3027   -6.9144 C   0  0  0  0  0  0  0  0  0  0  0  0
   -5.8504   11.7539   -7.1603 C   0  0  0  0  0  0  0  0  0  0  0  0
   -2.0991   12.1752   -6.9687 C   0  0  0  0  0  0  0  0  0  0  0  0
   -1.7663   13.4191   -6.4362 C   0  0  0  0  0  0  0  0  0  0  0  0
   -0.4291   13.4776   -6.3870 N   0  0  3  0  0  0  0  0  0  0  0  0
    0.1723   12.4029   -6.8190 N   0  0  0  0  0  0  0  0  0  0  0  0
   -0.8029   11.5945   -7.2007 C   0  0  0  0  0  0  0  0  0  0  0  0
    0.3904   14.5868   -5.9117 C   0  0  0  0  0  0  0  0  0  0  0  0
   -6.0966   12.3009   -9.8720 H   0  0  0  0  0  0  0  0  0  0  0  0
   -8.1900   10.1177  -13.8945 H   0  0  0  0  0  0  0  0  0  0  0  0
   -6.8945   12.2471  -14.0936 H   0  0  0  0  0  0  0  0  0  0  0  0
   -8.0374    9.6016   -7.2571 H   0  0  0  0  0  0  0  0  0  0  0  0
   -2.5387   14.5023  -10.9550 H   0  0  0  0  0  0  0  0  0  0  0  0
   -3.0724   14.8267  -12.6391 H   0  0  0  0  0  0  0  0  0  0  0  0
   -3.8811   15.6547  -11.2654 H   0  0  0  0  0  0  0  0  0  0  0  0
   -5.2461   15.2234  -12.9243 H   0  0  0  0  0  0  0  0  0  0  0  0
   -4.8927    8.7823   -8.4965 H   0  0  0  0  0  0  0  0  0  0  0  0
   -2.6613    9.7546   -8.0533 H   0  0  0  0  0  0  0  0  0  0  0  0
   -4.5126   13.2851   -6.4732 H   0  0  0  0  0  0  0  0  0  0  0  0
   -6.7407   12.3097   -6.9056 H   0  0  0  0  0  0  0  0  0  0  0  0
   -2.1564   14.2220   -7.0789 H   0  0  0  0  0  0  0  0  0  0  0  0
   -2.1866   13.5221   -5.4249 H   0  0  0  0  0  0  0  0  0  0  0  0
    0.7703   12.6208   -7.5903 H   0  0  0  0  0  0  0  0  0  0  0  0
   -0.6455   10.6177   -7.6337 H   0  0  0  0  0  0  0  0  0  0  0  0
    1.4543   14.3222   -6.0016 H   0  0  0  0  0  0  0  0  0  0  0  0
    0.1828   15.4815   -6.5170 H   0  0  0  0  0  0  0  0  0  0  0  0
    0.1519   14.7935   -4.8580 H   0  0  0  0  0  0  0  0  0  0  0  0
  1  2  2  0  0  0  0
  1  4  1  0  0  0  0
  1 13  1  0  0  0  0
  2  6  1  0  0  0  0
  3  4  2  0  0  0  0
  3  5  1  0  0  0  0
  5  6  2  0  0  0  0
  5  9  1  0  0  0  0
  6  7  1  0  0  0  0
  7  8  1  0  0  0  0
  7 10  2  3  0  0  0
  8  9  2  0  0  0  0
 10 15  1  0  0  0  0
 11 12  1  0  0  0  0
 11 13  2  0  0  0  0
 13 14  1  0  0  0  0
 15 16  2  0  0  0  0
 15 20  1  0  0  0  0
 16 17  1  0  0  0  0
 17 18  2  0  0  0  0
 18 19  1  0  0  0  0
 18 21  1  0  0  0  0
 19 20  2  0  0  0  0
 21 22  1  0  0  0  0
 21 25  2  0  0  0  0
 22 23  1  0  0  0  0
 23 24  1  0  0  0  0
 23 26  1  0  0  0  0
 24 25  1  0  0  0  0
  2 27  1  0  0  0  0
  3 28  1  0  0  0  0
  4 29  1  0  0  0  0
 10 30  1  0  0  0  0
 12 31  1  0  0  0  0
 12 32  1  0  0  0  0
 12 33  1  0  0  0  0
 14 34  1  0  0  0  0
 16 35  1  0  0  0  0
 17 36  1  0  0  0  0
 19 37  1  0  0  0  0
 20 38  1  0  0  0  0
 22 39  1  0  0  0  0
 22 40  1  0  0  0  0
 24 41  1  0  0  0  0
 25 42  1  0  0  0  0
 26 43  1  0  0  0  0
 26 44  1  0  0  0  0
 26 45  1  0  0  0  0
M  END
> <Name>
19

> <IC50[uM]>
0.015

$$$$
19
  -OEChem-05192314333D
 Structure written by MMmdl.
 45 48  0     1  0  0  0  0  0999 V2000
   -6.3863   12.3686  -12.0106 C   0  0  0  0  0  0  0  0  0  0  0  0
   -6.5303   11.8179  -10.7351 C   0  0  0  0  0  0  0  0  0  0  0  0
   -7.7274   10.5747  -13.0322 C   0  0  0  0  0  0  0  0  0  0  0  0
   -6.9939   11.7717  -13.1290 C   0  0  0  0  0  0  0  0  0  0  0  0
   -7.8233   10.0108  -11.7572 C   0  0  0  0  0  0  0  0  0  0  0  0
   -7.2504   10.6246  -10.6026 C   0  0  0  0  0  0  0  0  0  0  0  0
   -7.6148    9.7488   -9.5126 C   0  0  3  0  0  0  0  0  0  0  0  0
   -8.2772    8.7301   -9.9866 N   0  0  0  0  0  0  0  0  0  0  0  0
   -8.4133    8.8585  -11.2996 N   0  0  0  0  0  0  0  0  0  0  0  0
   -7.3367    9.8906   -8.0265 C   0  0  0  0  0  0  0  0  0  0  0  0
   -4.3739   13.6178  -11.5022 N   0  0  0  0  0  0  0  0  0  0  0  0
   -3.4056   14.7196  -11.5963 C   0  0  0  0  0  0  0  0  0  0  0  0
   -5.5407   13.6198  -12.1903 C   0  0  0  0  0  0  0  0  0  0  0  0
   -5.8948   14.5296  -12.9394 O   0  0  0  0  0  0  0  0  0  0  0  0
   -5.9610   10.4852   -7.7361 C   0  0  0  0  0  0  0  0  0  0  0  0
   -4.8098    9.7648   -8.0558 C   0  0  0  0  0  0  0  0  0  0  0  0
   -3.5520   10.3132   -7.8064 C   0  0  0  0  0  0  0  0  0  0  0  0
   -3.4430   11.5871   -7.2363 C   0  0  0  0  0  0  0  0  0  0  0  0
   -4.5944   12.3027   -6.9144 C   0  0  0  0  0  0  0  0  0  0  0  0
   -5.8504   11.7539   -7.1603 C   0  0  0  0  0  0  0  0  0  0  0  0
   -2.0991   12.1752   -6.9687 C   0  0  0  0  0  0  0  0  0  0  0  0
   -1.7663   13.4191   -6.4362 C   0  0  0  0  0  0  0  0  0  0  0  0
   -0.4291   13.4776   -6.3870 N   0  0  3  0  0  0  0  0  0  0  0  0
    0.1723   12.4029   -6.8190 N   0  0  0  0  0  0  0  0  0  0  0  0
   -0.8029   11.5945   -7.2007 C   0  0  0  0  0  0  0  0  0  0  0  0
    0.3904   14.5868   -5.9117 C   0  0  0  0  0  0  0  0  0  0  0  0
   -6.0966   12.3009   -9.8720 H   0  0  0  0  0  0  0  0  0  0  0  0
   -8.1900   10.1177  -13.8945 H   0  0  0  0  0  0  0  0  0  0  0  0
   -6.8945   12.2471  -14.0936 H   0  0  0  0  0  0  0  0  0  0  0  0
   -6.6717    9.1968   -9.6383 H   0  0  0  0  0  0  0  0  0  0  0  0
   -8.0374    9.6016   -7.2571 H   0  0  0  0  0  0  0  0  0  0  0  0
   -4.1641   12.8399  -10.9098 H   0  0  0  0  0  0  0  0  0  0  0  0
   -2.5387   14.5023  -10.9550 H   0  0  0  0  0  0  0  0  0  0  0  0
   -3.0724   14.8267  -12.6391 H   0  0  0  0  0  0  0  0  0  0  0  0
   -3.8811   15.6547  -11.2654 H   0  0  0  0  0  0  0  0  0  0  0  0
   -4.8927    8.7823   -8.4965 H   0  0  0  0  0  0  0  0  0  0  0  0
   -2.6613    9.7546   -8.0533 H   0  0  0  0  0  0  0  0  0  0  0  0
   -4.5126   13.2851   -6.4732 H   0  0  0  0  0  0  0  0  0  0  0  0
   -6.7407   12.3097   -6.9056 H   0  0  0  0  0  0  0  0  0  0  0  0
   -2.1564   14.2220   -7.0789 H   0  0  0  0  0  0  0  0  0  0  0  0
   -2.1866   13.5221   -5.4249 H   0  0  0  0  0  0  0  0  0  0  0  0
   -0.6455   10.6177   -7.6337 H   0  0  0  0  0  0  0  0  0  0  0  0
    1.4543   14.3214   -5.9997 H   0  0  0  0  0  0  0  0  0  0  0  0
    0.1843   15.4810   -6.5183 H   0  0  0  0  0  0  0  0  0  0  0  0
    0.1504   14.7949   -4.8586 H   0  0  0  0  0  0  0  0  0  0  0  0
  1  2  2  0  0  0  0
  1  4  1  0  0  0  0
  1 13  1  0  0  0  0
  2  6  1  0  0  0  0
  3  4  2  0  0  0  0
  3  5  1  0  0  0  0
  5  6  2  0  0  0  0
  5  9  1  0  0  0  0
  6  7  1  0  0  0  0
  7  8  1  0  0  0  0
  7 10  1  0  0  0  0
  8  9  2  0  0  0  0
 10 15  2  0  0  0  0
 11 12  1  0  0  0  0
 11 13  1  0  0  0  0
 13 14  2  0  0  0  0
 15 16  1  0  0  0  0
 15 20  1  0  0  0  0
 16 17  2  0  0  0  0
 17 18  1  0  0  0  0
 18 19  1  0  0  0  0
 18 21  2  0  0  0  0
 19 20  2  0  0  0  0
 21 22  1  0  0  0  0
 21 25  1  0  0  0  0
 22 23  1  0  0  0  0
 23 24  1  0  0  0  0
 23 26  1  0  0  0  0
 24 25  2  0  0  0  0
  2 27  1  0  0  0  0
  3 28  1  0  0  0  0
  4 29  1  0  0  0  0
  7 30  1  0  0  0  0
 10 31  1  0  0  0  0
 11 32  1  0  0  0  0
 12 33  1  0  0  0  0
 12 34  1  0  0  0  0
 12 35  1  0  0  0  0
 16 36  1  0  0  0  0
 17 37  1  0  0  0  0
 19 38  1  0  0  0  0
 20 39  1  0  0  0  0
 22 40  1  0  0  0  0
 22 41  1  0  0  0  0
 25 42  1  0  0  0  0
 26 43  1  0  0  0  0
 26 44  1  0  0  0  0
 26 45  1  0  0  0  0
M  END
> <Name>
19

> <IC50[uM]>
0.015

$$$$
19
  -OEChem-05192314333D
 Structure written by MMmdl.
 45 48  0     1  0  0  0  0  0999 V2000
   -6.3863   12.3686  -12.0106 C   0  0  0  0  0  0  0  0  0  0  0  0
   -6.5303   11.8179  -10.7351 C   0  0  0  0  0  0  0  0  0  0  0  0
   -7.7274   10.5747  -13.0322 C   0  0  0  0  0  0  0  0  0  0  0  0
   -6.9939   11.7717  -13.1290 C   0  0  0  0  0  0  0  0  0  0  0  0
   -7.8233   10.0108  -11.7572 C   0  0  0  0  0  0  0  0  0  0  0  0
   -7.2504   10.6246  -10.6026 C   0  0  0  0  0  0  0  0  0  0  0  0
   -7.6148    9.7488   -9.5126 C   0  0  3  0  0  0  0  0  0  0  0  0
   -8.2772    8.7301   -9.9866 N   0  0  0  0  0  0  0  0  0  0  0  0
   -8.4133    8.8585  -11.2996 N   0  0  0  0  0  0  0  0  0  0  0  0
   -7.3367    9.8906   -8.0265 C   0  0  0  0  0  0  0  0  0  0  0  0
   -4.3739   13.6178  -11.5022 N   0  0  0  0  0  0  0  0  0  0  0  0
   -3.4056   14.7196  -11.5963 C   0  0  0  0  0  0  0  0  0  0  0  0
   -5.5407   13.6198  -12.1903 C   0  0  0  0  0  0  0  0  0  0  0  0
   -5.8948   14.5296  -12.9394 O   0  0  0  0  0  0  0  0  0  0  0  0
   -5.9610   10.4852   -7.7361 C   0  0  0  0  0  0  0  0  0  0  0  0
   -4.8098    9.7648   -8.0558 C   0  0  0  0  0  0  0  0  0  0  0  0
   -3.5520   10.3132   -7.8064 C   0  0  0  0  0  0  0  0  0  0  0  0
   -3.4430   11.5871   -7.2363 C   0  0  0  0  0  0  0  0  0  0  0  0
   -4.5944   12.3027   -6.9144 C   0  0  0  0  0  0  0  0  0  0  0  0
   -5.8504   11.7539   -7.1603 C   0  0  0  0  0  0  0  0  0  0  0  0
   -2.0991   12.1752   -6.9687 C   0  0  0  0  0  0  0  0  0  0  0  0
   -1.7663   13.4191   -6.4362 C   0  0  0  0  0  0  0  0  0  0  0  0
   -0.4291   13.4776   -6.3870 N   0  0  3  0  0  0  0  0  0  0  0  0
    0.1723   12.4029   -6.8190 N   0  0  0  0  0  0  0  0  0  0  0  0
   -0.8029   11.5945   -7.2007 C   0  0  0  0  0  0  0  0  0  0  0  0
    0.3904   14.5868   -5.9117 C   0  0  0  0  0  0  0  0  0  0  0  0
   -6.0966   12.3009   -9.8720 H   0  0  0  0  0  0  0  0  0  0  0  0
   -8.1900   10.1177  -13.8945 H   0  0  0  0  0  0  0  0  0  0  0  0
   -6.8945   12.2471  -14.0936 H   0  0  0  0  0  0  0  0  0  0  0  0
   -6.6717    9.1968   -9.6383 H   0  0  0  0  0  0  0  0  0  0  0  0
   -8.0374    9.6016   -7.2571 H   0  0  0  0  0  0  0  0  0  0  0  0
   -2.5387   14.5023  -10.9550 H   0  0  0  0  0  0  0  0  0  0  0  0
   -3.0724   14.8267  -12.6391 H   0  0  0  0  0  0  0  0  0  0  0  0
   -3.8811   15.6547  -11.2654 H   0  0  0  0  0  0  0  0  0  0  0  0
   -5.2461   15.2234  -12.9243 H   0  0  0  0  0  0  0  0  0  0  0  0
   -4.8927    8.7823   -8.4965 H   0  0  0  0  0  0  0  0  0  0  0  0
   -2.6613    9.7546   -8.0533 H   0  0  0  0  0  0  0  0  0  0  0  0
   -4.5126   13.2851   -6.4732 H   0  0  0  0  0  0  0  0  0  0  0  0
   -6.7407   12.3097   -6.9056 H   0  0  0  0  0  0  0  0  0  0  0  0
   -2.1564   14.2220   -7.0789 H   0  0  0  0  0  0  0  0  0  0  0  0
   -2.1866   13.5221   -5.4249 H   0  0  0  0  0  0  0  0  0  0  0  0
   -0.6455   10.6177   -7.6337 H   0  0  0  0  0  0  0  0  0  0  0  0
    1.4543   14.3214   -5.9997 H   0  0  0  0  0  0  0  0  0  0  0  0
    0.1843   15.4810   -6.5183 H   0  0  0  0  0  0  0  0  0  0  0  0
    0.1504   14.7949   -4.8586 H   0  0  0  0  0  0  0  0  0  0  0  0
  1  2  2  0  0  0  0
  1  4  1  0  0  0  0
  1 13  1  0  0  0  0
  2  6  1  0  0  0  0
  3  4  2  0  0  0  0
  3  5  1  0  0  0  0
  5  6  2  0  0  0  0
  5  9  1  0  0  0  0
  6  7  1  0  0  0  0
  7  8  1  0  0  0  0
  7 10  1  0  0  0  0
  8  9  2  0  0  0  0
 10 15  2  0  0  0  0
 11 12  1  0  0  0  0
 11 13  2  0  0  0  0
 13 14  1  0  0  0  0
 15 16  1  0  0  0  0
 15 20  1  0  0  0  0
 16 17  2  0  0  0  0
 17 18  1  0  0  0  0
 18 19  1  0  0  0  0
 18 21  2  0  0  0  0
 19 20  2  0  0  0  0
 21 22  1  0  0  0  0
 21 25  1  0  0  0  0
 22 23  1  0  0  0  0
 23 24  1  0  0  0  0
 23 26  1  0  0  0  0
 24 25  2  0  0  0  0
  2 27  1  0  0  0  0
  3 28  1  0  0  0  0
  4 29  1  0  0  0  0
  7 30  1  0  0  0  0
 10 31  1  0  0  0  0
 12 32  1  0  0  0  0
 12 33  1  0  0  0  0
 12 34  1  0  0  0  0
 14 35  1  0  0  0  0
 16 36  1  0  0  0  0
 17 37  1  0  0  0  0
 19 38  1  0  0  0  0
 20 39  1  0  0  0  0
 22 40  1  0  0  0  0
 22 41  1  0  0  0  0
 25 42  1  0  0  0  0
 26 43  1  0  0  0  0
 26 44  1  0  0  0  0
 26 45  1  0  0  0  0
M  END
> <Name>
19

> <IC50[uM]>
0.015

$$$$
19
  -OEChem-05192314333D
 Structure written by MMmdl.
 45 48  0     1  0  0  0  0  0999 V2000
   -6.3863   12.3686  -12.0106 C   0  0  3  0  0  0  0  0  0  0  0  0
   -6.5303   11.8179  -10.7351 C   0  0  0  0  0  0  0  0  0  0  0  0
   -7.7274   10.5747  -13.0322 C   0  0  0  0  0  0  0  0  0  0  0  0
   -6.9939   11.7717  -13.1290 C   0  0  0  0  0  0  0  0  0  0  0  0
   -7.8233   10.0108  -11.7572 C   0  0  0  0  0  0  0  0  0  0  0  0
   -7.2504   10.6246  -10.6026 C   0  0  0  0  0  0  0  0  0  0  0  0
   -7.6148    9.7488   -9.5126 C   0  0  0  0  0  0  0  0  0  0  0  0
   -8.2772    8.7301   -9.9866 N   0  0  0  0  0  0  0  0  0  0  0  0
   -8.4133    8.8585  -11.2996 N   0  0  0  0  0  0  0  0  0  0  0  0
   -7.3367    9.8906   -8.0265 C   0  0  0  0  0  0  0  0  0  0  0  0
   -4.3739   13.6178  -11.5022 N   0  0  0  0  0  0  0  0  0  0  0  0
   -3.4056   14.7196  -11.5963 C   0  0  0  0  0  0  0  0  0  0  0  0
   -5.5407   13.6198  -12.1903 C   0  0  0  0  0  0  0  0  0  0  0  0
   -5.8948   14.5296  -12.9394 O   0  0  0  0  0  0  0  0  0  0  0  0
   -5.9610   10.4852   -7.7361 C   0  0  0  0  0  0  0  0  0  0  0  0
   -4.8098    9.7648   -8.0558 C   0  0  0  0  0  0  0  0  0  0  0  0
   -3.5520   10.3132   -7.8064 C   0  0  0  0  0  0  0  0  0  0  0  0
   -3.4430   11.5871   -7.2363 C   0  0  0  0  0  0  0  0  0  0  0  0
   -4.5944   12.3027   -6.9144 C   0  0  0  0  0  0  0  0  0  0  0  0
   -5.8504   11.7539   -7.1603 C   0  0  0  0  0  0  0  0  0  0  0  0
   -2.0991   12.1752   -6.9687 C   0  0  0  0  0  0  0  0  0  0  0  0
   -1.7663   13.4191   -6.4362 C   0  0  0  0  0  0  0  0  0  0  0  0
   -0.4291   13.4776   -6.3870 N   0  0  0  0  0  0  0  0  0  0  0  0
    0.1723   12.4029   -6.8190 N   0  0  0  0  0  0  0  0  0  0  0  0
   -0.8029   11.5945   -7.2007 C   0  0  0  0  0  0  0  0  0  0  0  0
    0.3904   14.5868   -5.9117 C   0  0  0  0  0  0  0  0  0  0  0  0
   -7.2799   12.9895  -11.8495 H   0  0  0  0  0  0  0  0  0  0  0  0
   -6.0966   12.3009   -9.8720 H   0  0  0  0  0  0  0  0  0  0  0  0
   -8.1900   10.1177  -13.8945 H   0  0  0  0  0  0  0  0  0  0  0  0
   -6.8945   12.2471  -14.0936 H   0  0  0  0  0  0  0  0  0  0  0  0
   -8.1028   10.5460   -7.5866 H   0  0  0  0  0  0  0  0  0  0  0  0
   -7.3947    8.8954   -7.5616 H   0  0  0  0  0  0  0  0  0  0  0  0
   -4.1641   12.8399  -10.9098 H   0  0  0  0  0  0  0  0  0  0  0  0
   -2.5387   14.5023  -10.9550 H   0  0  0  0  0  0  0  0  0  0  0  0
   -3.0724   14.8267  -12.6391 H   0  0  0  0  0  0  0  0  0  0  0  0
   -3.8811   15.6547  -11.2654 H   0  0  0  0  0  0  0  0  0  0  0  0
   -4.8927    8.7823   -8.4965 H   0  0  0  0  0  0  0  0  0  0  0  0
   -2.6613    9.7546   -8.0533 H   0  0  0  0  0  0  0  0  0  0  0  0
   -4.5126   13.2851   -6.4732 H   0  0  0  0  0  0  0  0  0  0  0  0
   -6.7407   12.3097   -6.9056 H   0  0  0  0  0  0  0  0  0  0  0  0
   -2.4554   14.1894   -6.1228 H   0  0  0  0  0  0  0  0  0  0  0  0
   -0.6455   10.6177   -7.6337 H   0  0  0  0  0  0  0  0  0  0  0  0
    1.4543   14.3214   -5.9997 H   0  0  0  0  0  0  0  0  0  0  0  0
    0.1843   15.4810   -6.5183 H   0  0  0  0  0  0  0  0  0  0  0  0
    0.1504   14.7949   -4.8586 H   0  0  0  0  0  0  0  0  0  0  0  0
  1  2  1  0  0  0  0
  1  4  1  0  0  0  0
  1 13  1  0  0  0  0
  2  6  2  0  0  0  0
  3  4  2  0  0  0  0
  3  5  1  0  0  0  0
  5  6  1  0  0  0  0
  5  9  2  0  0  0  0
  6  7  1  0  0  0  0
  7  8  2  0  0  0  0
  7 10  1  0  0  0  0
  8  9  1  0  0  0  0
 10 15  1  0  0  0  0
 11 12  1  0  0  0  0
 11 13  1  0  0  0  0
 13 14  2  0  0  0  0
 15 16  2  0  0  0  0
 15 20  1  0  0  0  0
 16 17  1  0  0  0  0
 17 18  2  0  0  0  0
 18 19  1  0  0  0  0
 18 21  1  0  0  0  0
 19 20  2  0  0  0  0
 21 22  2  0  0  0  0
 21 25  1  0  0  0  0
 22 23  1  0  0  0  0
 23 24  1  0  0  0  0
 23 26  1  0  0  0  0
 24 25  2  0  0  0  0
  1 27  1  0  0  0  0
  2 28  1  0  0  0  0
  3 29  1  0  0  0  0
  4 30  1  0  0  0  0
 10 31  1  0  0  0  0
 10 32  1  0  0  0  0
 11 33  1  0  0  0  0
 12 34  1  0  0  0  0
 12 35  1  0  0  0  0
 12 36  1  0  0  0  0
 16 37  1  0  0  0  0
 17 38  1  0  0  0  0
 19 39  1  0  0  0  0
 20 40  1  0  0  0  0
 22 41  1  0  0  0  0
 25 42  1  0  0  0  0
 26 43  1  0  0  0  0
 26 44  1  0  0  0  0
 26 45  1  0  0  0  0
M  END
> <Name>
19

> <IC50[uM]>
0.015

$$$$
19
  -OEChem-05192314333D
 Structure written by MMmdl.
 45 48  0     1  0  0  0  0  0999 V2000
   -6.3863   12.3686  -12.0106 C   0  0  0  0  0  0  0  0  0  0  0  0
   -6.5303   11.8179  -10.7351 C   0  0  0  0  0  0  0  0  0  0  0  0
   -7.7274   10.5747  -13.0322 C   0  0  0  0  0  0  0  0  0  0  0  0
   -6.9939   11.7717  -13.1290 C   0  0  0  0  0  0  0  0  0  0  0  0
   -7.8233   10.0108  -11.7572 C   0  0  0  0  0  0  0  0  0  0  0  0
   -7.2504   10.6246  -10.6026 C   0  0  3  0  0  0  0  0  0  0  0  0
   -7.6148    9.7488   -9.5126 C   0  0  0  0  0  0  0  0  0  0  0  0
   -8.2772    8.7301   -9.9866 N   0  0  0  0  0  0  0  0  0  0  0  0
   -8.4133    8.8585  -11.2996 N   0  0  0  0  0  0  0  0  0  0  0  0
   -7.3367    9.8906   -8.0265 C   0  0  0  0  0  0  0  0  0  0  0  0
   -4.3739   13.6178  -11.5022 N   0  0  0  0  0  0  0  0  0  0  0  0
   -3.4056   14.7196  -11.5963 C   0  0  0  0  0  0  0  0  0  0  0  0
   -5.5407   13.6198  -12.1903 C   0  0  0  0  0  0  0  0  0  0  0  0
   -5.8948   14.5296  -12.9394 O   0  0  0  0  0  0  0  0  0  0  0  0
   -5.9610   10.4852   -7.7361 C   0  0  0  0  0  0  0  0  0  0  0  0
   -4.8098    9.7648   -8.0558 C   0  0  0  0  0  0  0  0  0  0  0  0
   -3.5520   10.3132   -7.8064 C   0  0  0  0  0  0  0  0  0  0  0  0
   -3.4430   11.5871   -7.2363 C   0  0  0  0  0  0  0  0  0  0  0  0
   -4.5944   12.3027   -6.9144 C   0  0  0  0  0  0  0  0  0  0  0  0
   -5.8504   11.7539   -7.1603 C   0  0  0  0  0  0  0  0  0  0  0  0
   -2.0991   12.1752   -6.9687 C   0  0  0  0  0  0  0  0  0  0  0  0
   -1.7663   13.4191   -6.4362 C   0  0  0  0  0  0  0  0  0  0  0  0
   -0.4291   13.4776   -6.3870 N   0  0  0  0  0  0  0  0  0  0  0  0
    0.1723   12.4029   -6.8190 N   0  0  0  0  0  0  0  0  0  0  0  0
   -0.8029   11.5945   -7.2007 C   0  0  0  0  0  0  0  0  0  0  0  0
    0.3904   14.5868   -5.9117 C   0  0  0  0  0  0  0  0  0  0  0  0
   -6.0966   12.3009   -9.8720 H   0  0  0  0  0  0  0  0  0  0  0  0
   -8.1900   10.1177  -13.8945 H   0  0  0  0  0  0  0  0  0  0  0  0
   -6.8945   12.2471  -14.0936 H   0  0  0  0  0  0  0  0  0  0  0  0
   -6.3254   10.0493  -10.7557 H   0  0  0  0  0  0  0  0  0  0  0  0
   -8.1028   10.5460   -7.5866 H   0  0  0  0  0  0  0  0  0  0  0  0
   -7.3947    8.8954   -7.5616 H   0  0  0  0  0  0  0  0  0  0  0  0
   -4.1641   12.8399  -10.9098 H   0  0  0  0  0  0  0  0  0  0  0  0
   -2.5387   14.5023  -10.9550 H   0  0  0  0  0  0  0  0  0  0  0  0
   -3.0724   14.8267  -12.6391 H   0  0  0  0  0  0  0  0  0  0  0  0
   -3.8811   15.6547  -11.2654 H   0  0  0  0  0  0  0  0  0  0  0  0
   -4.8927    8.7823   -8.4965 H   0  0  0  0  0  0  0  0  0  0  0  0
   -2.6613    9.7546   -8.0533 H   0  0  0  0  0  0  0  0  0  0  0  0
   -4.5126   13.2851   -6.4732 H   0  0  0  0  0  0  0  0  0  0  0  0
   -6.7407   12.3097   -6.9056 H   0  0  0  0  0  0  0  0  0  0  0  0
   -2.4554   14.1894   -6.1228 H   0  0  0  0  0  0  0  0  0  0  0  0
   -0.6455   10.6177   -7.6337 H   0  0  0  0  0  0  0  0  0  0  0  0
    1.4543   14.3214   -5.9997 H   0  0  0  0  0  0  0  0  0  0  0  0
    0.1843   15.4810   -6.5183 H   0  0  0  0  0  0  0  0  0  0  0  0
    0.1504   14.7949   -4.8586 H   0  0  0  0  0  0  0  0  0  0  0  0
  1  2  2  0  0  0  0
  1  4  1  0  0  0  0
  1 13  1  0  0  0  0
  2  6  1  0  0  0  0
  3  4  2  0  0  0  0
  3  5  1  0  0  0  0
  5  6  1  0  0  0  0
  5  9  2  0  0  0  0
  6  7  1  0  0  0  0
  7  8  2  0  0  0  0
  7 10  1  0  0  0  0
  8  9  1  0  0  0  0
 10 15  1  0  0  0  0
 11 12  1  0  0  0  0
 11 13  1  0  0  0  0
 13 14  2  0  0  0  0
 15 16  2  0  0  0  0
 15 20  1  0  0  0  0
 16 17  1  0  0  0  0
 17 18  2  0  0  0  0
 18 19  1  0  0  0  0
 18 21  1  0  0  0  0
 19 20  2  0  0  0  0
 21 22  2  0  0  0  0
 21 25  1  0  0  0  0
 22 23  1  0  0  0  0
 23 24  1  0  0  0  0
 23 26  1  0  0  0  0
 24 25  2  0  0  0  0
  2 27  1  0  0  0  0
  3 28  1  0  0  0  0
  4 29  1  0  0  0  0
  6 30  1  0  0  0  0
 10 31  1  0  0  0  0
 10 32  1  0  0  0  0
 11 33  1  0  0  0  0
 12 34  1  0  0  0  0
 12 35  1  0  0  0  0
 12 36  1  0  0  0  0
 16 37  1  0  0  0  0
 17 38  1  0  0  0  0
 19 39  1  0  0  0  0
 20 40  1  0  0  0  0
 22 41  1  0  0  0  0
 25 42  1  0  0  0  0
 26 43  1  0  0  0  0
 26 44  1  0  0  0  0
 26 45  1  0  0  0  0
M  END
> <Name>
19

> <IC50[uM]>
0.015

$$$$
19
  -OEChem-05192314333D
 Structure written by MMmdl.
 45 48  0     0  0  0  0  0  0999 V2000
   -6.3863   12.3686  -12.0106 C   0  0  0  0  0  0  0  0  0  0  0  0
   -6.5303   11.8179  -10.7351 C   0  0  0  0  0  0  0  0  0  0  0  0
   -7.7274   10.5747  -13.0322 C   0  0  0  0  0  0  0  0  0  0  0  0
   -6.9939   11.7717  -13.1290 C   0  0  0  0  0  0  0  0  0  0  0  0
   -7.8233   10.0108  -11.7572 C   0  0  0  0  0  0  0  0  0  0  0  0
   -7.2504   10.6246  -10.6026 C   0  0  0  0  0  0  0  0  0  0  0  0
   -7.6148    9.7488   -9.5126 C   0  0  0  0  0  0  0  0  0  0  0  0
   -8.2772    8.7301   -9.9866 N   0  0  0  0  0  0  0  0  0  0  0  0
   -8.4133    8.8585  -11.2996 N   0  0  0  0  0  0  0  0  0  0  0  0
   -7.3367    9.8906   -8.0265 C   0  0  0  0  0  0  0  0  0  0  0  0
   -4.3739   13.6178  -11.5022 N   0  0  0  0  0  0  0  0  0  0  0  0
   -3.4056   14.7196  -11.5963 C   0  0  0  0  0  0  0  0  0  0  0  0
   -5.5407   13.6198  -12.1903 C   0  0  0  0  0  0  0  0  0  0  0  0
   -5.8948   14.5296  -12.9394 O   0  0  0  0  0  0  0  0  0  0  0  0
   -5.9610   10.4852   -7.7361 C   0  0  0  0  0  0  0  0  0  0  0  0
   -4.8098    9.7648   -8.0558 C   0  0  0  0  0  0  0  0  0  0  0  0
   -3.5520   10.3132   -7.8064 C   0  0  0  0  0  0  0  0  0  0  0  0
   -3.4430   11.5871   -7.2363 C   0  0  0  0  0  0  0  0  0  0  0  0
   -4.5944   12.3027   -6.9144 C   0  0  0  0  0  0  0  0  0  0  0  0
   -5.8504   11.7539   -7.1603 C   0  0  0  0  0  0  0  0  0  0  0  0
   -2.0991   12.1752   -6.9687 C   0  0  0  0  0  0  0  0  0  0  0  0
   -1.7663   13.4191   -6.4362 C   0  0  0  0  0  0  0  0  0  0  0  0
   -0.4291   13.4776   -6.3870 N   0  0  0  0  0  0  0  0  0  0  0  0
    0.1723   12.4029   -6.8190 N   0  0  0  0  0  0  0  0  0  0  0  0
   -0.8029   11.5945   -7.2007 C   0  0  0  0  0  0  0  0  0  0  0  0
    0.3904   14.5868   -5.9117 C   0  0  0  0  0  0  0  0  0  0  0  0
   -6.0966   12.3009   -9.8720 H   0  0  0  0  0  0  0  0  0  0  0  0
   -8.7487   10.7774  -13.3871 H   0  0  0  0  0  0  0  0  0  0  0  0
   -7.2503    9.8346  -13.6914 H   0  0  0  0  0  0  0  0  0  0  0  0
   -6.8945   12.2471  -14.0936 H   0  0  0  0  0  0  0  0  0  0  0  0
   -8.1028   10.5460   -7.5866 H   0  0  0  0  0  0  0  0  0  0  0  0
   -7.3947    8.8954   -7.5616 H   0  0  0  0  0  0  0  0  0  0  0  0
   -4.1641   12.8399  -10.9098 H   0  0  0  0  0  0  0  0  0  0  0  0
   -2.5387   14.5023  -10.9550 H   0  0  0  0  0  0  0  0  0  0  0  0
   -3.0724   14.8267  -12.6391 H   0  0  0  0  0  0  0  0  0  0  0  0
   -3.8811   15.6547  -11.2654 H   0  0  0  0  0  0  0  0  0  0  0  0
   -4.8927    8.7823   -8.4965 H   0  0  0  0  0  0  0  0  0  0  0  0
   -2.6613    9.7546   -8.0533 H   0  0  0  0  0  0  0  0  0  0  0  0
   -4.5126   13.2851   -6.4732 H   0  0  0  0  0  0  0  0  0  0  0  0
   -6.7407   12.3097   -6.9056 H   0  0  0  0  0  0  0  0  0  0  0  0
   -2.4554   14.1894   -6.1228 H   0  0  0  0  0  0  0  0  0  0  0  0
   -0.6455   10.6177   -7.6337 H   0  0  0  0  0  0  0  0  0  0  0  0
    1.4543   14.3214   -5.9997 H   0  0  0  0  0  0  0  0  0  0  0  0
    0.1843   15.4810   -6.5183 H   0  0  0  0  0  0  0  0  0  0  0  0
    0.1504   14.7949   -4.8586 H   0  0  0  0  0  0  0  0  0  0  0  0
  1  2  1  0  0  0  0
  1  4  2  0  0  0  0
  1 13  1  0  0  0  0
  2  6  2  0  0  0  0
  3  4  1  0  0  0  0
  3  5  1  0  0  0  0
  5  6  1  0  0  0  0
  5  9  2  0  0  0  0
  6  7  1  0  0  0  0
  7  8  2  0  0  0  0
  7 10  1  0  0  0  0
  8  9  1  0  0  0  0
 10 15  1  0  0  0  0
 11 12  1  0  0  0  0
 11 13  1  0  0  0  0
 13 14  2  0  0  0  0
 15 16  2  0  0  0  0
 15 20  1  0  0  0  0
 16 17  1  0  0  0  0
 17 18  2  0  0  0  0
 18 19  1  0  0  0  0
 18 21  1  0  0  0  0
 19 20  2  0  0  0  0
 21 22  2  0  0  0  0
 21 25  1  0  0  0  0
 22 23  1  0  0  0  0
 23 24  1  0  0  0  0
 23 26  1  0  0  0  0
 24 25  2  0  0  0  0
  2 27  1  0  0  0  0
  3 28  1  0  0  0  0
  3 29  1  0  0  0  0
  4 30  1  0  0  0  0
 10 31  1  0  0  0  0
 10 32  1  0  0  0  0
 11 33  1  0  0  0  0
 12 34  1  0  0  0  0
 12 35  1  0  0  0  0
 12 36  1  0  0  0  0
 16 37  1  0  0  0  0
 17 38  1  0  0  0  0
 19 39  1  0  0  0  0
 20 40  1  0  0  0  0
 22 41  1  0  0  0  0
 25 42  1  0  0  0  0
 26 43  1  0  0  0  0
 26 44  1  0  0  0  0
 26 45  1  0  0  0  0
M  END
> <Name>
19

> <IC50[uM]>
0.015

$$$$
19
  -OEChem-05192314333D
 Structure written by MMmdl.
 45 48  0     1  0  0  0  0  0999 V2000
   -6.3863   12.3686  -12.0106 C   0  0  3  0  0  0  0  0  0  0  0  0
   -6.5303   11.8179  -10.7351 C   0  0  0  0  0  0  0  0  0  0  0  0
   -7.7274   10.5747  -13.0322 C   0  0  0  0  0  0  0  0  0  0  0  0
   -6.9939   11.7717  -13.1290 C   0  0  0  0  0  0  0  0  0  0  0  0
   -7.8233   10.0108  -11.7572 C   0  0  0  0  0  0  0  0  0  0  0  0
   -7.2504   10.6246  -10.6026 C   0  0  0  0  0  0  0  0  0  0  0  0
   -7.6148    9.7488   -9.5126 C   0  0  0  0  0  0  0  0  0  0  0  0
   -8.2772    8.7301   -9.9866 N   0  0  0  0  0  0  0  0  0  0  0  0
   -8.4133    8.8585  -11.2996 N   0  0  0  0  0  0  0  0  0  0  0  0
   -7.3367    9.8906   -8.0265 C   0  0  0  0  0  0  0  0  0  0  0  0
   -4.3739   13.6178  -11.5022 N   0  0  0  0  0  0  0  0  0  0  0  0
   -3.4056   14.7196  -11.5963 C   0  0  0  0  0  0  0  0  0  0  0  0
   -5.5407   13.6198  -12.1903 C   0  0  0  0  0  0  0  0  0  0  0  0
   -5.8948   14.5296  -12.9394 O   0  0  0  0  0  0  0  0  0  0  0  0
   -5.9610   10.4852   -7.7361 C   0  0  0  0  0  0  0  0  0  0  0  0
   -4.8098    9.7648   -8.0558 C   0  0  0  0  0  0  0  0  0  0  0  0
   -3.5520   10.3132   -7.8064 C   0  0  0  0  0  0  0  0  0  0  0  0
   -3.4430   11.5871   -7.2363 C   0  0  0  0  0  0  0  0  0  0  0  0
   -4.5944   12.3027   -6.9144 C   0  0  0  0  0  0  0  0  0  0  0  0
   -5.8504   11.7539   -7.1603 C   0  0  0  0  0  0  0  0  0  0  0  0
   -2.0991   12.1752   -6.9687 C   0  0  0  0  0  0  0  0  0  0  0  0
   -1.7663   13.4191   -6.4362 C   0  0  0  0  0  0  0  0  0  0  0  0
   -0.4291   13.4776   -6.3870 N   0  0  0  0  0  0  0  0  0  0  0  0
    0.1723   12.4029   -6.8190 N   0  0  0  0  0  0  0  0  0  0  0  0
   -0.8029   11.5945   -7.2007 C   0  0  0  0  0  0  0  0  0  0  0  0
    0.3904   14.5868   -5.9117 C   0  0  0  0  0  0  0  0  0  0  0  0
   -7.2799   12.9895  -11.8495 H   0  0  0  0  0  0  0  0  0  0  0  0
   -6.0966   12.3009   -9.8720 H   0  0  0  0  0  0  0  0  0  0  0  0
   -8.1900   10.1177  -13.8945 H   0  0  0  0  0  0  0  0  0  0  0  0
   -6.8945   12.2471  -14.0936 H   0  0  0  0  0  0  0  0  0  0  0  0
   -8.1028   10.5460   -7.5866 H   0  0  0  0  0  0  0  0  0  0  0  0
   -7.3947    8.8954   -7.5616 H   0  0  0  0  0  0  0  0  0  0  0  0
   -2.5387   14.5023  -10.9550 H   0  0  0  0  0  0  0  0  0  0  0  0
   -3.0724   14.8267  -12.6391 H   0  0  0  0  0  0  0  0  0  0  0  0
   -3.8811   15.6547  -11.2654 H   0  0  0  0  0  0  0  0  0  0  0  0
   -5.2461   15.2234  -12.9243 H   0  0  0  0  0  0  0  0  0  0  0  0
   -4.8927    8.7823   -8.4965 H   0  0  0  0  0  0  0  0  0  0  0  0
   -2.6613    9.7546   -8.0533 H   0  0  0  0  0  0  0  0  0  0  0  0
   -4.5126   13.2851   -6.4732 H   0  0  0  0  0  0  0  0  0  0  0  0
   -6.7407   12.3097   -6.9056 H   0  0  0  0  0  0  0  0  0  0  0  0
   -2.4554   14.1894   -6.1228 H   0  0  0  0  0  0  0  0  0  0  0  0
   -0.6455   10.6177   -7.6337 H   0  0  0  0  0  0  0  0  0  0  0  0
    1.4543   14.3214   -5.9997 H   0  0  0  0  0  0  0  0  0  0  0  0
    0.1843   15.4810   -6.5183 H   0  0  0  0  0  0  0  0  0  0  0  0
    0.1504   14.7949   -4.8586 H   0  0  0  0  0  0  0  0  0  0  0  0
  1  2  1  0  0  0  0
  1  4  1  0  0  0  0
  1 13  1  0  0  0  0
  2  6  2  0  0  0  0
  3  4  2  0  0  0  0
  3  5  1  0  0  0  0
  5  6  1  0  0  0  0
  5  9  2  0  0  0  0
  6  7  1  0  0  0  0
  7  8  2  0  0  0  0
  7 10  1  0  0  0  0
  8  9  1  0  0  0  0
 10 15  1  0  0  0  0
 11 12  1  0  0  0  0
 11 13  2  0  0  0  0
 13 14  1  0  0  0  0
 15 16  2  0  0  0  0
 15 20  1  0  0  0  0
 16 17  1  0  0  0  0
 17 18  2  0  0  0  0
 18 19  1  0  0  0  0
 18 21  1  0  0  0  0
 19 20  2  0  0  0  0
 21 22  2  0  0  0  0
 21 25  1  0  0  0  0
 22 23  1  0  0  0  0
 23 24  1  0  0  0  0
 23 26  1  0  0  0  0
 24 25  2  0  0  0  0
  1 27  1  0  0  0  0
  2 28  1  0  0  0  0
  3 29  1  0  0  0  0
  4 30  1  0  0  0  0
 10 31  1  0  0  0  0
 10 32  1  0  0  0  0
 12 33  1  0  0  0  0
 12 34  1  0  0  0  0
 12 35  1  0  0  0  0
 14 36  1  0  0  0  0
 16 37  1  0  0  0  0
 17 38  1  0  0  0  0
 19 39  1  0  0  0  0
 20 40  1  0  0  0  0
 22 41  1  0  0  0  0
 25 42  1  0  0  0  0
 26 43  1  0  0  0  0
 26 44  1  0  0  0  0
 26 45  1  0  0  0  0
M  END
> <Name>
19

> <IC50[uM]>
0.015

$$$$
19
  -OEChem-05192314333D
 Structure written by MMmdl.
 45 48  0     1  0  0  0  0  0999 V2000
   -6.3863   12.3686  -12.0106 C   0  0  0  0  0  0  0  0  0  0  0  0
   -6.5303   11.8179  -10.7351 C   0  0  0  0  0  0  0  0  0  0  0  0
   -7.7274   10.5747  -13.0322 C   0  0  0  0  0  0  0  0  0  0  0  0
   -6.9939   11.7717  -13.1290 C   0  0  0  0  0  0  0  0  0  0  0  0
   -7.8233   10.0108  -11.7572 C   0  0  0  0  0  0  0  0  0  0  0  0
   -7.2504   10.6246  -10.6026 C   0  0  3  0  0  0  0  0  0  0  0  0
   -7.6148    9.7488   -9.5126 C   0  0  0  0  0  0  0  0  0  0  0  0
   -8.2772    8.7301   -9.9866 N   0  0  0  0  0  0  0  0  0  0  0  0
   -8.4133    8.8585  -11.2996 N   0  0  0  0  0  0  0  0  0  0  0  0
   -7.3367    9.8906   -8.0265 C   0  0  0  0  0  0  0  0  0  0  0  0
   -4.3739   13.6178  -11.5022 N   0  0  0  0  0  0  0  0  0  0  0  0
   -3.4056   14.7196  -11.5963 C   0  0  0  0  0  0  0  0  0  0  0  0
   -5.5407   13.6198  -12.1903 C   0  0  0  0  0  0  0  0  0  0  0  0
   -5.8948   14.5296  -12.9394 O   0  0  0  0  0  0  0  0  0  0  0  0
   -5.9610   10.4852   -7.7361 C   0  0  0  0  0  0  0  0  0  0  0  0
   -4.8098    9.7648   -8.0558 C   0  0  0  0  0  0  0  0  0  0  0  0
   -3.5520   10.3132   -7.8064 C   0  0  0  0  0  0  0  0  0  0  0  0
   -3.4430   11.5871   -7.2363 C   0  0  0  0  0  0  0  0  0  0  0  0
   -4.5944   12.3027   -6.9144 C   0  0  0  0  0  0  0  0  0  0  0  0
   -5.8504   11.7539   -7.1603 C   0  0  0  0  0  0  0  0  0  0  0  0
   -2.0991   12.1752   -6.9687 C   0  0  0  0  0  0  0  0  0  0  0  0
   -1.7663   13.4191   -6.4362 C   0  0  0  0  0  0  0  0  0  0  0  0
   -0.4291   13.4776   -6.3870 N   0  0  0  0  0  0  0  0  0  0  0  0
    0.1723   12.4029   -6.8190 N   0  0  0  0  0  0  0  0  0  0  0  0
   -0.8029   11.5945   -7.2007 C   0  0  0  0  0  0  0  0  0  0  0  0
    0.3904   14.5868   -5.9117 C   0  0  0  0  0  0  0  0  0  0  0  0
   -6.0966   12.3009   -9.8720 H   0  0  0  0  0  0  0  0  0  0  0  0
   -8.1900   10.1177  -13.8945 H   0  0  0  0  0  0  0  0  0  0  0  0
   -6.8945   12.2471  -14.0936 H   0  0  0  0  0  0  0  0  0  0  0  0
   -6.3254   10.0493  -10.7557 H   0  0  0  0  0  0  0  0  0  0  0  0
   -8.1028   10.5460   -7.5866 H   0  0  0  0  0  0  0  0  0  0  0  0
   -7.3947    8.8954   -7.5616 H   0  0  0  0  0  0  0  0  0  0  0  0
   -2.5387   14.5023  -10.9550 H   0  0  0  0  0  0  0  0  0  0  0  0
   -3.0724   14.8267  -12.6391 H   0  0  0  0  0  0  0  0  0  0  0  0
   -3.8811   15.6547  -11.2654 H   0  0  0  0  0  0  0  0  0  0  0  0
   -5.2461   15.2234  -12.9243 H   0  0  0  0  0  0  0  0  0  0  0  0
   -4.8927    8.7823   -8.4965 H   0  0  0  0  0  0  0  0  0  0  0  0
   -2.6613    9.7546   -8.0533 H   0  0  0  0  0  0  0  0  0  0  0  0
   -4.5126   13.2851   -6.4732 H   0  0  0  0  0  0  0  0  0  0  0  0
   -6.7407   12.3097   -6.9056 H   0  0  0  0  0  0  0  0  0  0  0  0
   -2.4554   14.1894   -6.1228 H   0  0  0  0  0  0  0  0  0  0  0  0
   -0.6455   10.6177   -7.6337 H   0  0  0  0  0  0  0  0  0  0  0  0
    1.4543   14.3214   -5.9997 H   0  0  0  0  0  0  0  0  0  0  0  0
    0.1843   15.4810   -6.5183 H   0  0  0  0  0  0  0  0  0  0  0  0
    0.1504   14.7949   -4.8586 H   0  0  0  0  0  0  0  0  0  0  0  0
  1  2  2  0  0  0  0
  1  4  1  0  0  0  0
  1 13  1  0  0  0  0
  2  6  1  0  0  0  0
  3  4  2  0  0  0  0
  3  5  1  0  0  0  0
  5  6  1  0  0  0  0
  5  9  2  0  0  0  0
  6  7  1  0  0  0  0
  7  8  2  0  0  0  0
  7 10  1  0  0  0  0
  8  9  1  0  0  0  0
 10 15  1  0  0  0  0
 11 12  1  0  0  0  0
 11 13  2  0  0  0  0
 13 14  1  0  0  0  0
 15 16  2  0  0  0  0
 15 20  1  0  0  0  0
 16 17  1  0  0  0  0
 17 18  2  0  0  0  0
 18 19  1  0  0  0  0
 18 21  1  0  0  0  0
 19 20  2  0  0  0  0
 21 22  2  0  0  0  0
 21 25  1  0  0  0  0
 22 23  1  0  0  0  0
 23 24  1  0  0  0  0
 23 26  1  0  0  0  0
 24 25  2  0  0  0  0
  2 27  1  0  0  0  0
  3 28  1  0  0  0  0
  4 29  1  0  0  0  0
  6 30  1  0  0  0  0
 10 31  1  0  0  0  0
 10 32  1  0  0  0  0
 12 33  1  0  0  0  0
 12 34  1  0  0  0  0
 12 35  1  0  0  0  0
 14 36  1  0  0  0  0
 16 37  1  0  0  0  0
 17 38  1  0  0  0  0
 19 39  1  0  0  0  0
 20 40  1  0  0  0  0
 22 41  1  0  0  0  0
 25 42  1  0  0  0  0
 26 43  1  0  0  0  0
 26 44  1  0  0  0  0
 26 45  1  0  0  0  0
M  END
> <Name>
19

> <IC50[uM]>
0.015

$$$$
19
  -OEChem-05192314333D
 Structure written by MMmdl.
 45 48  0     0  0  0  0  0  0999 V2000
   -6.3863   12.3686  -12.0106 C   0  0  0  0  0  0  0  0  0  0  0  0
   -6.5303   11.8179  -10.7351 C   0  0  0  0  0  0  0  0  0  0  0  0
   -7.7274   10.5747  -13.0322 C   0  0  0  0  0  0  0  0  0  0  0  0
   -6.9939   11.7717  -13.1290 C   0  0  0  0  0  0  0  0  0  0  0  0
   -7.8233   10.0108  -11.7572 C   0  0  0  0  0  0  0  0  0  0  0  0
   -7.2504   10.6246  -10.6026 C   0  0  0  0  0  0  0  0  0  0  0  0
   -7.6148    9.7488   -9.5126 C   0  0  0  0  0  0  0  0  0  0  0  0
   -8.2772    8.7301   -9.9866 N   0  0  0  0  0  0  0  0  0  0  0  0
   -8.4133    8.8585  -11.2996 N   0  0  0  0  0  0  0  0  0  0  0  0
   -7.3367    9.8906   -8.0265 C   0  0  0  0  0  0  0  0  0  0  0  0
   -4.3739   13.6178  -11.5022 N   0  0  0  0  0  0  0  0  0  0  0  0
   -3.4056   14.7196  -11.5963 C   0  0  0  0  0  0  0  0  0  0  0  0
   -5.5407   13.6198  -12.1903 C   0  0  0  0  0  0  0  0  0  0  0  0
   -5.8948   14.5296  -12.9394 O   0  0  0  0  0  0  0  0  0  0  0  0
   -5.9610   10.4852   -7.7361 C   0  0  0  0  0  0  0  0  0  0  0  0
   -4.8098    9.7648   -8.0558 C   0  0  0  0  0  0  0  0  0  0  0  0
   -3.5520   10.3132   -7.8064 C   0  0  0  0  0  0  0  0  0  0  0  0
   -3.4430   11.5871   -7.2363 C   0  0  0  0  0  0  0  0  0  0  0  0
   -4.5944   12.3027   -6.9144 C   0  0  0  0  0  0  0  0  0  0  0  0
   -5.8504   11.7539   -7.1603 C   0  0  0  0  0  0  0  0  0  0  0  0
   -2.0991   12.1752   -6.9687 C   0  0  0  0  0  0  0  0  0  0  0  0
   -1.7663   13.4191   -6.4362 C   0  0  0  0  0  0  0  0  0  0  0  0
   -0.4291   13.4776   -6.3870 N   0  0  0  0  0  0  0  0  0  0  0  0
    0.1723   12.4029   -6.8190 N   0  0  0  0  0  0  0  0  0  0  0  0
   -0.8029   11.5945   -7.2007 C   0  0  0  0  0  0  0  0  0  0  0  0
    0.3904   14.5868   -5.9117 C   0  0  0  0  0  0  0  0  0  0  0  0
   -6.0966   12.3009   -9.8720 H   0  0  0  0  0  0  0  0  0  0  0  0
   -8.7487   10.7774  -13.3871 H   0  0  0  0  0  0  0  0  0  0  0  0
   -7.2503    9.8346  -13.6914 H   0  0  0  0  0  0  0  0  0  0  0  0
   -6.8945   12.2471  -14.0936 H   0  0  0  0  0  0  0  0  0  0  0  0
   -8.1028   10.5460   -7.5866 H   0  0  0  0  0  0  0  0  0  0  0  0
   -7.3947    8.8954   -7.5616 H   0  0  0  0  0  0  0  0  0  0  0  0
   -2.5387   14.5023  -10.9550 H   0  0  0  0  0  0  0  0  0  0  0  0
   -3.0724   14.8267  -12.6391 H   0  0  0  0  0  0  0  0  0  0  0  0
   -3.8811   15.6547  -11.2654 H   0  0  0  0  0  0  0  0  0  0  0  0
   -5.2461   15.2234  -12.9243 H   0  0  0  0  0  0  0  0  0  0  0  0
   -4.8927    8.7823   -8.4965 H   0  0  0  0  0  0  0  0  0  0  0  0
   -2.6613    9.7546   -8.0533 H   0  0  0  0  0  0  0  0  0  0  0  0
   -4.5126   13.2851   -6.4732 H   0  0  0  0  0  0  0  0  0  0  0  0
   -6.7407   12.3097   -6.9056 H   0  0  0  0  0  0  0  0  0  0  0  0
   -2.4554   14.1894   -6.1228 H   0  0  0  0  0  0  0  0  0  0  0  0
   -0.6455   10.6177   -7.6337 H   0  0  0  0  0  0  0  0  0  0  0  0
    1.4543   14.3214   -5.9997 H   0  0  0  0  0  0  0  0  0  0  0  0
    0.1843   15.4810   -6.5183 H   0  0  0  0  0  0  0  0  0  0  0  0
    0.1504   14.7949   -4.8586 H   0  0  0  0  0  0  0  0  0  0  0  0
  1  2  1  0  0  0  0
  1  4  2  0  0  0  0
  1 13  1  0  0  0  0
  2  6  2  0  0  0  0
  3  4  1  0  0  0  0
  3  5  1  0  0  0  0
  5  6  1  0  0  0  0
  5  9  2  0  0  0  0
  6  7  1  0  0  0  0
  7  8  2  0  0  0  0
  7 10  1  0  0  0  0
  8  9  1  0  0  0  0
 10 15  1  0  0  0  0
 11 12  1  0  0  0  0
 11 13  2  0  0  0  0
 13 14  1  0  0  0  0
 15 16  2  0  0  0  0
 15 20  1  0  0  0  0
 16 17  1  0  0  0  0
 17 18  2  0  0  0  0
 18 19  1  0  0  0  0
 18 21  1  0  0  0  0
 19 20  2  0  0  0  0
 21 22  2  0  0  0  0
 21 25  1  0  0  0  0
 22 23  1  0  0  0  0
 23 24  1  0  0  0  0
 23 26  1  0  0  0  0
 24 25  2  0  0  0  0
  2 27  1  0  0  0  0
  3 28  1  0  0  0  0
  3 29  1  0  0  0  0
  4 30  1  0  0  0  0
 10 31  1  0  0  0  0
 10 32  1  0  0  0  0
 12 33  1  0  0  0  0
 12 34  1  0  0  0  0
 12 35  1  0  0  0  0
 14 36  1  0  0  0  0
 16 37  1  0  0  0  0
 17 38  1  0  0  0  0
 19 39  1  0  0  0  0
 20 40  1  0  0  0  0
 22 41  1  0  0  0  0
 25 42  1  0  0  0  0
 26 43  1  0  0  0  0
 26 44  1  0  0  0  0
 26 45  1  0  0  0  0
M  END
> <Name>
19

> <IC50[uM]>
0.015

$$$$
19
  -OEChem-05192314333D
 Structure written by MMmdl.
 45 48  0     0  0  0  0  0  0999 V2000
   -6.3863   12.3686  -12.0106 C   0  0  0  0  0  0  0  0  0  0  0  0
   -6.5303   11.8179  -10.7351 C   0  0  0  0  0  0  0  0  0  0  0  0
   -7.7274   10.5747  -13.0322 C   0  0  0  0  0  0  0  0  0  0  0  0
   -6.9939   11.7717  -13.1290 C   0  0  0  0  0  0  0  0  0  0  0  0
   -7.8233   10.0108  -11.7572 C   0  0  0  0  0  0  0  0  0  0  0  0
   -7.2504   10.6246  -10.6026 C   0  0  0  0  0  0  0  0  0  0  0  0
   -7.6148    9.7488   -9.5126 C   0  0  0  0  0  0  0  0  0  0  0  0
   -8.2772    8.7301   -9.9866 N   0  0  0  0  0  0  0  0  0  0  0  0
   -8.4133    8.8585  -11.2996 N   0  0  0  0  0  0  0  0  0  0  0  0
   -7.3367    9.8906   -8.0265 C   0  0  0  0  0  0  0  0  0  0  0  0
   -4.3739   13.6178  -11.5022 N   0  0  0  0  0  0  0  0  0  0  0  0
   -3.4056   14.7196  -11.5963 C   0  0  0  0  0  0  0  0  0  0  0  0
   -5.5407   13.6198  -12.1903 C   0  0  0  0  0  0  0  0  0  0  0  0
   -5.8948   14.5296  -12.9394 O   0  0  0  0  0  0  0  0  0  0  0  0
   -5.9610   10.4852   -7.7361 C   0  0  0  0  0  0  0  0  0  0  0  0
   -4.8098    9.7648   -8.0558 C   0  0  0  0  0  0  0  0  0  0  0  0
   -3.5520   10.3132   -7.8064 C   0  0  0  0  0  0  0  0  0  0  0  0
   -3.4430   11.5871   -7.2363 C   0  0  0  0  0  0  0  0  0  0  0  0
   -4.5944   12.3027   -6.9144 C   0  0  0  0  0  0  0  0  0  0  0  0
   -5.8504   11.7539   -7.1603 C   0  0  0  0  0  0  0  0  0  0  0  0
   -2.0991   12.1752   -6.9687 C   0  0  0  0  0  0  0  0  0  0  0  0
   -1.7663   13.4191   -6.4362 C   0  0  0  0  0  0  0  0  0  0  0  0
   -0.4291   13.4776   -6.3870 N   0  0  0  0  0  0  0  0  0  0  0  0
    0.1723   12.4029   -6.8190 N   0  0  0  0  0  0  0  0  0  0  0  0
   -0.8029   11.5945   -7.2007 C   0  0  0  0  0  0  0  0  0  0  0  0
    0.3904   14.5868   -5.9117 C   0  0  0  0  0  0  0  0  0  0  0  0
   -6.0966   12.3009   -9.8720 H   0  0  0  0  0  0  0  0  0  0  0  0
   -8.1900   10.1177  -13.8945 H   0  0  0  0  0  0  0  0  0  0  0  0
   -6.8945   12.2471  -14.0936 H   0  0  0  0  0  0  0  0  0  0  0  0
   -8.0374    9.6016   -7.2571 H   0  0  0  0  0  0  0  0  0  0  0  0
   -4.1641   12.8399  -10.9098 H   0  0  0  0  0  0  0  0  0  0  0  0
   -2.5387   14.5023  -10.9550 H   0  0  0  0  0  0  0  0  0  0  0  0
   -3.0724   14.8267  -12.6391 H   0  0  0  0  0  0  0  0  0  0  0  0
   -3.8811   15.6547  -11.2654 H   0  0  0  0  0  0  0  0  0  0  0  0
   -5.9721   10.0288   -6.7353 H   0  0  0  0  0  0  0  0  0  0  0  0
   -4.8927    8.7823   -8.4965 H   0  0  0  0  0  0  0  0  0  0  0  0
   -2.6613    9.7546   -8.0533 H   0  0  0  0  0  0  0  0  0  0  0  0
   -3.4418   12.0376   -8.2398 H   0  0  0  0  0  0  0  0  0  0  0  0
   -4.5126   13.2851   -6.4732 H   0  0  0  0  0  0  0  0  0  0  0  0
   -6.7407   12.3097   -6.9056 H   0  0  0  0  0  0  0  0  0  0  0  0
   -2.4554   14.1894   -6.1228 H   0  0  0  0  0  0  0  0  0  0  0  0
   -0.6455   10.6177   -7.6337 H   0  0  0  0  0  0  0  0  0  0  0  0
    1.4543   14.3214   -5.9997 H   0  0  0  0  0  0  0  0  0  0  0  0
    0.1843   15.4810   -6.5183 H   0  0  0  0  0  0  0  0  0  0  0  0
    0.1504   14.7949   -4.8586 H   0  0  0  0  0  0  0  0  0  0  0  0
  1  2  2  0  0  0  0
  1  4  1  0  0  0  0
  1 13  1  0  0  0  0
  2  6  1  0  0  0  0
  3  4  2  0  0  0  0
  3  5  1  0  0  0  0
  5  6  2  0  0  0  0
  5  9  1  0  0  0  0
  6  7  1  0  0  0  0
  7  8  1  0  0  0  0
  7 10  2  3  0  0  0
  8  9  2  0  0  0  0
 10 15  1  0  0  0  0
 11 12  1  0  0  0  0
 11 13  1  0  0  0  0
 13 14  2  0  0  0  0
 15 16  1  0  0  0  0
 15 20  1  0  0  0  0
 16 17  2  0  0  0  0
 17 18  1  0  0  0  0
 18 19  1  0  0  0  0
 18 21  1  0  0  0  0
 19 20  2  0  0  0  0
 21 22  2  0  0  0  0
 21 25  1  0  0  0  0
 22 23  1  0  0  0  0
 23 24  1  0  0  0  0
 23 26  1  0  0  0  0
 24 25  2  0  0  0  0
  2 27  1  0  0  0  0
  3 28  1  0  0  0  0
  4 29  1  0  0  0  0
 10 30  1  0  0  0  0
 11 31  1  0  0  0  0
 12 32  1  0  0  0  0
 12 33  1  0  0  0  0
 12 34  1  0  0  0  0
 15 35  1  0  0  0  0
 16 36  1  0  0  0  0
 17 37  1  0  0  0  0
 18 38  1  0  0  0  0
 19 39  1  0  0  0  0
 20 40  1  0  0  0  0
 22 41  1  0  0  0  0
 25 42  1  0  0  0  0
 26 43  1  0  0  0  0
 26 44  1  0  0  0  0
 26 45  1  0  0  0  0
M  END
> <Name>
19

> <IC50[uM]>
0.015

$$$$
19
  -OEChem-05192314333D
 Structure written by MMmdl.
 45 48  0     1  0  0  0  0  0999 V2000
   -6.3863   12.3686  -12.0106 C   0  0  0  0  0  0  0  0  0  0  0  0
   -6.5303   11.8179  -10.7351 C   0  0  0  0  0  0  0  0  0  0  0  0
   -7.7274   10.5747  -13.0322 C   0  0  0  0  0  0  0  0  0  0  0  0
   -6.9939   11.7717  -13.1290 C   0  0  0  0  0  0  0  0  0  0  0  0
   -7.8233   10.0108  -11.7572 C   0  0  0  0  0  0  0  0  0  0  0  0
   -7.2504   10.6246  -10.6026 C   0  0  0  0  0  0  0  0  0  0  0  0
   -7.6148    9.7488   -9.5126 C   0  0  3  0  0  0  0  0  0  0  0  0
   -8.2772    8.7301   -9.9866 N   0  0  0  0  0  0  0  0  0  0  0  0
   -8.4133    8.8585  -11.2996 N   0  0  0  0  0  0  0  0  0  0  0  0
   -7.3367    9.8906   -8.0265 C   0  0  0  0  0  0  0  0  0  0  0  0
   -4.3739   13.6178  -11.5022 N   0  0  0  0  0  0  0  0  0  0  0  0
   -3.4056   14.7196  -11.5963 C   0  0  0  0  0  0  0  0  0  0  0  0
   -5.5407   13.6198  -12.1903 C   0  0  0  0  0  0  0  0  0  0  0  0
   -5.8948   14.5296  -12.9394 O   0  0  0  0  0  0  0  0  0  0  0  0
   -5.9610   10.4852   -7.7361 C   0  0  0  0  0  0  0  0  0  0  0  0
   -4.8098    9.7648   -8.0558 C   0  0  0  0  0  0  0  0  0  0  0  0
   -3.5520   10.3132   -7.8064 C   0  0  0  0  0  0  0  0  0  0  0  0
   -3.4430   11.5871   -7.2363 C   0  0  0  0  0  0  0  0  0  0  0  0
   -4.5944   12.3027   -6.9144 C   0  0  0  0  0  0  0  0  0  0  0  0
   -5.8504   11.7539   -7.1603 C   0  0  0  0  0  0  0  0  0  0  0  0
   -2.0991   12.1752   -6.9687 C   0  0  0  0  0  0  0  0  0  0  0  0
   -1.7663   13.4191   -6.4362 C   0  0  0  0  0  0  0  0  0  0  0  0
   -0.4291   13.4776   -6.3870 N   0  0  0  0  0  0  0  0  0  0  0  0
    0.1723   12.4029   -6.8190 N   0  0  0  0  0  0  0  0  0  0  0  0
   -0.8029   11.5945   -7.2007 C   0  0  0  0  0  0  0  0  0  0  0  0
    0.3904   14.5868   -5.9117 C   0  0  0  0  0  0  0  0  0  0  0  0
   -6.0966   12.3009   -9.8720 H   0  0  0  0  0  0  0  0  0  0  0  0
   -8.1900   10.1177  -13.8945 H   0  0  0  0  0  0  0  0  0  0  0  0
   -6.8945   12.2471  -14.0936 H   0  0  0  0  0  0  0  0  0  0  0  0
   -6.6717    9.1968   -9.6383 H   0  0  0  0  0  0  0  0  0  0  0  0
   -8.0374    9.6016   -7.2571 H   0  0  0  0  0  0  0  0  0  0  0  0
   -4.1641   12.8399  -10.9098 H   0  0  0  0  0  0  0  0  0  0  0  0
   -2.5387   14.5023  -10.9550 H   0  0  0  0  0  0  0  0  0  0  0  0
   -3.0724   14.8267  -12.6391 H   0  0  0  0  0  0  0  0  0  0  0  0
   -3.8811   15.6547  -11.2654 H   0  0  0  0  0  0  0  0  0  0  0  0
   -4.8927    8.7823   -8.4965 H   0  0  0  0  0  0  0  0  0  0  0  0
   -2.6613    9.7546   -8.0533 H   0  0  0  0  0  0  0  0  0  0  0  0
   -3.4418   12.0376   -8.2398 H   0  0  0  0  0  0  0  0  0  0  0  0
   -4.5126   13.2851   -6.4732 H   0  0  0  0  0  0  0  0  0  0  0  0
   -6.7407   12.3097   -6.9056 H   0  0  0  0  0  0  0  0  0  0  0  0
   -2.4554   14.1894   -6.1228 H   0  0  0  0  0  0  0  0  0  0  0  0
   -0.6455   10.6177   -7.6337 H   0  0  0  0  0  0  0  0  0  0  0  0
    1.4543   14.3214   -5.9997 H   0  0  0  0  0  0  0  0  0  0  0  0
    0.1843   15.4810   -6.5183 H   0  0  0  0  0  0  0  0  0  0  0  0
    0.1504   14.7949   -4.8586 H   0  0  0  0  0  0  0  0  0  0  0  0
  1  2  2  0  0  0  0
  1  4  1  0  0  0  0
  1 13  1  0  0  0  0
  2  6  1  0  0  0  0
  3  4  2  0  0  0  0
  3  5  1  0  0  0  0
  5  6  2  0  0  0  0
  5  9  1  0  0  0  0
  6  7  1  0  0  0  0
  7  8  1  0  0  0  0
  7 10  1  0  0  0  0
  8  9  2  0  0  0  0
 10 15  2  0  0  0  0
 11 12  1  0  0  0  0
 11 13  1  0  0  0  0
 13 14  2  0  0  0  0
 15 16  1  0  0  0  0
 15 20  1  0  0  0  0
 16 17  2  0  0  0  0
 17 18  1  0  0  0  0
 18 19  1  0  0  0  0
 18 21  1  0  0  0  0
 19 20  2  0  0  0  0
 21 22  2  0  0  0  0
 21 25  1  0  0  0  0
 22 23  1  0  0  0  0
 23 24  1  0  0  0  0
 23 26  1  0  0  0  0
 24 25  2  0  0  0  0
  2 27  1  0  0  0  0
  3 28  1  0  0  0  0
  4 29  1  0  0  0  0
  7 30  1  0  0  0  0
 10 31  1  0  0  0  0
 11 32  1  0  0  0  0
 12 33  1  0  0  0  0
 12 34  1  0  0  0  0
 12 35  1  0  0  0  0
 16 36  1  0  0  0  0
 17 37  1  0  0  0  0
 18 38  1  0  0  0  0
 19 39  1  0  0  0  0
 20 40  1  0  0  0  0
 22 41  1  0  0  0  0
 25 42  1  0  0  0  0
 26 43  1  0  0  0  0
 26 44  1  0  0  0  0
 26 45  1  0  0  0  0
M  END
> <Name>
19

> <IC50[uM]>
0.015

$$$$
19
  -OEChem-05192314333D
 Structure written by MMmdl.
 45 48  0     1  0  0  0  0  0999 V2000
   -6.3863   12.3686  -12.0106 C   0  0  3  0  0  0  0  0  0  0  0  0
   -6.5303   11.8179  -10.7351 C   0  0  0  0  0  0  0  0  0  0  0  0
   -7.7274   10.5747  -13.0322 C   0  0  0  0  0  0  0  0  0  0  0  0
   -6.9939   11.7717  -13.1290 C   0  0  0  0  0  0  0  0  0  0  0  0
   -7.8233   10.0108  -11.7572 C   0  0  3  0  0  0  0  0  0  0  0  0
   -7.2504   10.6246  -10.6026 C   0  0  0  0  0  0  0  0  0  0  0  0
   -7.6148    9.7488   -9.5126 C   0  0  0  0  0  0  0  0  0  0  0  0
   -8.2772    8.7301   -9.9866 N   0  0  0  0  0  0  0  0  0  0  0  0
   -8.4133    8.8585  -11.2996 N   0  0  0  0  0  0  0  0  0  0  0  0
   -7.3367    9.8906   -8.0265 C   0  0  0  0  0  0  0  0  0  0  0  0
   -4.3739   13.6178  -11.5022 N   0  0  0  0  0  0  0  0  0  0  0  0
   -3.4056   14.7196  -11.5963 C   0  0  0  0  0  0  0  0  0  0  0  0
   -5.5407   13.6198  -12.1903 C   0  0  0  0  0  0  0  0  0  0  0  0
   -5.8948   14.5296  -12.9394 O   0  0  0  0  0  0  0  0  0  0  0  0
   -5.9610   10.4852   -7.7361 C   0  0  0  0  0  0  0  0  0  0  0  0
   -4.8098    9.7648   -8.0558 C   0  0  0  0  0  0  0  0  0  0  0  0
   -3.5520   10.3132   -7.8064 C   0  0  0  0  0  0  0  0  0  0  0  0
   -3.4430   11.5871   -7.2363 C   0  0  0  0  0  0  0  0  0  0  0  0
   -4.5944   12.3027   -6.9144 C   0  0  0  0  0  0  0  0  0  0  0  0
   -5.8504   11.7539   -7.1603 C   0  0  0  0  0  0  0  0  0  0  0  0
   -2.0991   12.1752   -6.9687 C   0  0  0  0  0  0  0  0  0  0  0  0
   -1.7663   13.4191   -6.4362 C   0  0  0  0  0  0  0  0  0  0  0  0
   -0.4291   13.4776   -6.3870 N   0  0  0  0  0  0  0  0  0  0  0  0
    0.1723   12.4029   -6.8190 N   0  0  0  0  0  0  0  0  0  0  0  0
   -0.8029   11.5945   -7.2007 C   0  0  0  0  0  0  0  0  0  0  0  0
    0.3904   14.5868   -5.9117 C   0  0  0  0  0  0  0  0  0  0  0  0
   -7.2799   12.9895  -11.8495 H   0  0  0  0  0  0  0  0  0  0  0  0
   -6.0966   12.3009   -9.8720 H   0  0  0  0  0  0  0  0  0  0  0  0
   -8.1900   10.1177  -13.8945 H   0  0  0  0  0  0  0  0  0  0  0  0
   -6.8945   12.2471  -14.0936 H   0  0  0  0  0  0  0  0  0  0  0  0
   -8.7607   10.5598  -11.5844 H   0  0  0  0  0  0  0  0  0  0  0  0
   -8.0374    9.6016   -7.2571 H   0  0  0  0  0  0  0  0  0  0  0  0
   -4.1641   12.8399  -10.9098 H   0  0  0  0  0  0  0  0  0  0  0  0
   -2.5387   14.5023  -10.9550 H   0  0  0  0  0  0  0  0  0  0  0  0
   -3.0724   14.8267  -12.6391 H   0  0  0  0  0  0  0  0  0  0  0  0
   -3.8811   15.6547  -11.2654 H   0  0  0  0  0  0  0  0  0  0  0  0
   -4.8927    8.7823   -8.4965 H   0  0  0  0  0  0  0  0  0  0  0  0
   -2.6613    9.7546   -8.0533 H   0  0  0  0  0  0  0  0  0  0  0  0
   -4.5126   13.2851   -6.4732 H   0  0  0  0  0  0  0  0  0  0  0  0
   -6.7407   12.3097   -6.9056 H   0  0  0  0  0  0  0  0  0  0  0  0
   -2.4554   14.1894   -6.1228 H   0  0  0  0  0  0  0  0  0  0  0  0
   -0.6455   10.6177   -7.6337 H   0  0  0  0  0  0  0  0  0  0  0  0
    1.4543   14.3214   -5.9997 H   0  0  0  0  0  0  0  0  0  0  0  0
    0.1843   15.4810   -6.5183 H   0  0  0  0  0  0  0  0  0  0  0  0
    0.1504   14.7949   -4.8586 H   0  0  0  0  0  0  0  0  0  0  0  0
  1  2  1  0  0  0  0
  1  4  1  0  0  0  0
  1 13  1  0  0  0  0
  2  6  2  0  0  0  0
  3  4  2  0  0  0  0
  3  5  1  0  0  0  0
  5  6  1  0  0  0  0
  5  9  1  0  0  0  0
  6  7  1  0  0  0  0
  7  8  1  0  0  0  0
  7 10  2  3  0  0  0
  8  9  2  0  0  0  0
 10 15  1  0  0  0  0
 11 12  1  0  0  0  0
 11 13  1  0  0  0  0
 13 14  2  0  0  0  0
 15 16  2  0  0  0  0
 15 20  1  0  0  0  0
 16 17  1  0  0  0  0
 17 18  2  0  0  0  0
 18 19  1  0  0  0  0
 18 21  1  0  0  0  0
 19 20  2  0  0  0  0
 21 22  2  0  0  0  0
 21 25  1  0  0  0  0
 22 23  1  0  0  0  0
 23 24  1  0  0  0  0
 23 26  1  0  0  0  0
 24 25  2  0  0  0  0
  1 27  1  0  0  0  0
  2 28  1  0  0  0  0
  3 29  1  0  0  0  0
  4 30  1  0  0  0  0
  5 31  1  0  0  0  0
 10 32  1  0  0  0  0
 11 33  1  0  0  0  0
 12 34  1  0  0  0  0
 12 35  1  0  0  0  0
 12 36  1  0  0  0  0
 16 37  1  0  0  0  0
 17 38  1  0  0  0  0
 19 39  1  0  0  0  0
 20 40  1  0  0  0  0
 22 41  1  0  0  0  0
 25 42  1  0  0  0  0
 26 43  1  0  0  0  0
 26 44  1  0  0  0  0
 26 45  1  0  0  0  0
M  END
> <Name>
19

> <IC50[uM]>
0.015

$$$$
19
  -OEChem-05192314333D
 Structure written by MMmdl.
 45 48  0     1  0  0  0  0  0999 V2000
   -6.3863   12.3686  -12.0106 C   0  0  0  0  0  0  0  0  0  0  0  0
   -6.5303   11.8179  -10.7351 C   0  0  0  0  0  0  0  0  0  0  0  0
   -7.7274   10.5747  -13.0322 C   0  0  0  0  0  0  0  0  0  0  0  0
   -6.9939   11.7717  -13.1290 C   0  0  0  0  0  0  0  0  0  0  0  0
   -7.8233   10.0108  -11.7572 C   0  0  3  0  0  0  0  0  0  0  0  0
   -7.2504   10.6246  -10.6026 C   0  0  3  0  0  0  0  0  0  0  0  0
   -7.6148    9.7488   -9.5126 C   0  0  0  0  0  0  0  0  0  0  0  0
   -8.2772    8.7301   -9.9866 N   0  0  0  0  0  0  0  0  0  0  0  0
   -8.4133    8.8585  -11.2996 N   0  0  0  0  0  0  0  0  0  0  0  0
   -7.3367    9.8906   -8.0265 C   0  0  0  0  0  0  0  0  0  0  0  0
   -4.3739   13.6178  -11.5022 N   0  0  0  0  0  0  0  0  0  0  0  0
   -3.4056   14.7196  -11.5963 C   0  0  0  0  0  0  0  0  0  0  0  0
   -5.5407   13.6198  -12.1903 C   0  0  0  0  0  0  0  0  0  0  0  0
   -5.8948   14.5296  -12.9394 O   0  0  0  0  0  0  0  0  0  0  0  0
   -5.9610   10.4852   -7.7361 C   0  0  0  0  0  0  0  0  0  0  0  0
   -4.8098    9.7648   -8.0558 C   0  0  0  0  0  0  0  0  0  0  0  0
   -3.5520   10.3132   -7.8064 C   0  0  0  0  0  0  0  0  0  0  0  0
   -3.4430   11.5871   -7.2363 C   0  0  0  0  0  0  0  0  0  0  0  0
   -4.5944   12.3027   -6.9144 C   0  0  0  0  0  0  0  0  0  0  0  0
   -5.8504   11.7539   -7.1603 C   0  0  0  0  0  0  0  0  0  0  0  0
   -2.0991   12.1752   -6.9687 C   0  0  0  0  0  0  0  0  0  0  0  0
   -1.7663   13.4191   -6.4362 C   0  0  0  0  0  0  0  0  0  0  0  0
   -0.4291   13.4776   -6.3870 N   0  0  0  0  0  0  0  0  0  0  0  0
    0.1723   12.4029   -6.8190 N   0  0  0  0  0  0  0  0  0  0  0  0
   -0.8029   11.5945   -7.2007 C   0  0  0  0  0  0  0  0  0  0  0  0
    0.3904   14.5868   -5.9117 C   0  0  0  0  0  0  0  0  0  0  0  0
   -6.0966   12.3009   -9.8720 H   0  0  0  0  0  0  0  0  0  0  0  0
   -8.1900   10.1177  -13.8945 H   0  0  0  0  0  0  0  0  0  0  0  0
   -6.8945   12.2471  -14.0936 H   0  0  0  0  0  0  0  0  0  0  0  0
   -8.7607   10.5598  -11.5844 H   0  0  0  0  0  0  0  0  0  0  0  0
   -6.3254   10.0493  -10.7557 H   0  0  0  0  0  0  0  0  0  0  0  0
   -8.0374    9.6016   -7.2571 H   0  0  0  0  0  0  0  0  0  0  0  0
   -4.1641   12.8399  -10.9098 H   0  0  0  0  0  0  0  0  0  0  0  0
   -2.5387   14.5023  -10.9550 H   0  0  0  0  0  0  0  0  0  0  0  0
   -3.0724   14.8267  -12.6391 H   0  0  0  0  0  0  0  0  0  0  0  0
   -3.8811   15.6547  -11.2654 H   0  0  0  0  0  0  0  0  0  0  0  0
   -4.8927    8.7823   -8.4965 H   0  0  0  0  0  0  0  0  0  0  0  0
   -2.6613    9.7546   -8.0533 H   0  0  0  0  0  0  0  0  0  0  0  0
   -4.5126   13.2851   -6.4732 H   0  0  0  0  0  0  0  0  0  0  0  0
   -6.7407   12.3097   -6.9056 H   0  0  0  0  0  0  0  0  0  0  0  0
   -2.4554   14.1894   -6.1228 H   0  0  0  0  0  0  0  0  0  0  0  0
   -0.6455   10.6177   -7.6337 H   0  0  0  0  0  0  0  0  0  0  0  0
    1.4543   14.3214   -5.9997 H   0  0  0  0  0  0  0  0  0  0  0  0
    0.1843   15.4810   -6.5183 H   0  0  0  0  0  0  0  0  0  0  0  0
    0.1504   14.7949   -4.8586 H   0  0  0  0  0  0  0  0  0  0  0  0
  1  2  2  0  0  0  0
  1  4  1  0  0  0  0
  1 13  1  0  0  0  0
  2  6  1  0  0  0  0
  3  4  2  0  0  0  0
  3  5  1  0  0  0  0
  5  6  1  0  0  0  0
  5  9  1  0  0  0  0
  6  7  1  0  0  0  0
  7  8  1  0  0  0  0
  7 10  2  3  0  0  0
  8  9  2  0  0  0  0
 10 15  1  0  0  0  0
 11 12  1  0  0  0  0
 11 13  1  0  0  0  0
 13 14  2  0  0  0  0
 15 16  2  0  0  0  0
 15 20  1  0  0  0  0
 16 17  1  0  0  0  0
 17 18  2  0  0  0  0
 18 19  1  0  0  0  0
 18 21  1  0  0  0  0
 19 20  2  0  0  0  0
 21 22  2  0  0  0  0
 21 25  1  0  0  0  0
 22 23  1  0  0  0  0
 23 24  1  0  0  0  0
 23 26  1  0  0  0  0
 24 25  2  0  0  0  0
  2 27  1  0  0  0  0
  3 28  1  0  0  0  0
  4 29  1  0  0  0  0
  5 30  1  0  0  0  0
  6 31  1  0  0  0  0
 10 32  1  0  0  0  0
 11 33  1  0  0  0  0
 12 34  1  0  0  0  0
 12 35  1  0  0  0  0
 12 36  1  0  0  0  0
 16 37  1  0  0  0  0
 17 38  1  0  0  0  0
 19 39  1  0  0  0  0
 20 40  1  0  0  0  0
 22 41  1  0  0  0  0
 25 42  1  0  0  0  0
 26 43  1  0  0  0  0
 26 44  1  0  0  0  0
 26 45  1  0  0  0  0
M  END
> <Name>
19

> <IC50[uM]>
0.015

$$$$
19
  -OEChem-05192314333D
 Structure written by MMmdl.
 45 48  0     1  0  0  0  0  0999 V2000
   -6.3863   12.3686  -12.0106 C   0  0  0  0  0  0  0  0  0  0  0  0
   -6.5303   11.8179  -10.7351 C   0  0  0  0  0  0  0  0  0  0  0  0
   -7.7274   10.5747  -13.0322 C   0  0  0  0  0  0  0  0  0  0  0  0
   -6.9939   11.7717  -13.1290 C   0  0  0  0  0  0  0  0  0  0  0  0
   -7.8233   10.0108  -11.7572 C   0  0  3  0  0  0  0  0  0  0  0  0
   -7.2504   10.6246  -10.6026 C   0  0  0  0  0  0  0  0  0  0  0  0
   -7.6148    9.7488   -9.5126 C   0  0  0  0  0  0  0  0  0  0  0  0
   -8.2772    8.7301   -9.9866 N   0  0  0  0  0  0  0  0  0  0  0  0
   -8.4133    8.8585  -11.2996 N   0  0  0  0  0  0  0  0  0  0  0  0
   -7.3367    9.8906   -8.0265 C   0  0  0  0  0  0  0  0  0  0  0  0
   -4.3739   13.6178  -11.5022 N   0  0  0  0  0  0  0  0  0  0  0  0
   -3.4056   14.7196  -11.5963 C   0  0  0  0  0  0  0  0  0  0  0  0
   -5.5407   13.6198  -12.1903 C   0  0  0  0  0  0  0  0  0  0  0  0
   -5.8948   14.5296  -12.9394 O   0  0  0  0  0  0  0  0  0  0  0  0
   -5.9610   10.4852   -7.7361 C   0  0  0  0  0  0  0  0  0  0  0  0
   -4.8098    9.7648   -8.0558 C   0  0  0  0  0  0  0  0  0  0  0  0
   -3.5520   10.3132   -7.8064 C   0  0  0  0  0  0  0  0  0  0  0  0
   -3.4430   11.5871   -7.2363 C   0  0  0  0  0  0  0  0  0  0  0  0
   -4.5944   12.3027   -6.9144 C   0  0  0  0  0  0  0  0  0  0  0  0
   -5.8504   11.7539   -7.1603 C   0  0  0  0  0  0  0  0  0  0  0  0
   -2.0991   12.1752   -6.9687 C   0  0  0  0  0  0  0  0  0  0  0  0
   -1.7663   13.4191   -6.4362 C   0  0  0  0  0  0  0  0  0  0  0  0
   -0.4291   13.4776   -6.3870 N   0  0  0  0  0  0  0  0  0  0  0  0
    0.1723   12.4029   -6.8190 N   0  0  0  0  0  0  0  0  0  0  0  0
   -0.8029   11.5945   -7.2007 C   0  0  0  0  0  0  0  0  0  0  0  0
    0.3904   14.5868   -5.9117 C   0  0  0  0  0  0  0  0  0  0  0  0
   -6.0966   12.3009   -9.8720 H   0  0  0  0  0  0  0  0  0  0  0  0
   -8.7487   10.7774  -13.3871 H   0  0  0  0  0  0  0  0  0  0  0  0
   -7.2503    9.8346  -13.6914 H   0  0  0  0  0  0  0  0  0  0  0  0
   -6.8945   12.2471  -14.0936 H   0  0  0  0  0  0  0  0  0  0  0  0
   -8.7607   10.5598  -11.5844 H   0  0  0  0  0  0  0  0  0  0  0  0
   -8.0374    9.6016   -7.2571 H   0  0  0  0  0  0  0  0  0  0  0  0
   -4.1641   12.8399  -10.9098 H   0  0  0  0  0  0  0  0  0  0  0  0
   -2.5387   14.5023  -10.9550 H   0  0  0  0  0  0  0  0  0  0  0  0
   -3.0724   14.8267  -12.6391 H   0  0  0  0  0  0  0  0  0  0  0  0
   -3.8811   15.6547  -11.2654 H   0  0  0  0  0  0  0  0  0  0  0  0
   -4.8927    8.7823   -8.4965 H   0  0  0  0  0  0  0  0  0  0  0  0
   -2.6613    9.7546   -8.0533 H   0  0  0  0  0  0  0  0  0  0  0  0
   -4.5126   13.2851   -6.4732 H   0  0  0  0  0  0  0  0  0  0  0  0
   -6.7407   12.3097   -6.9056 H   0  0  0  0  0  0  0  0  0  0  0  0
   -2.4554   14.1894   -6.1228 H   0  0  0  0  0  0  0  0  0  0  0  0
   -0.6455   10.6177   -7.6337 H   0  0  0  0  0  0  0  0  0  0  0  0
    1.4543   14.3214   -5.9997 H   0  0  0  0  0  0  0  0  0  0  0  0
    0.1843   15.4810   -6.5183 H   0  0  0  0  0  0  0  0  0  0  0  0
    0.1504   14.7949   -4.8586 H   0  0  0  0  0  0  0  0  0  0  0  0
  1  2  1  0  0  0  0
  1  4  2  0  0  0  0
  1 13  1  0  0  0  0
  2  6  2  0  0  0  0
  3  4  1  0  0  0  0
  3  5  1  0  0  0  0
  5  6  1  0  0  0  0
  5  9  1  0  0  0  0
  6  7  1  0  0  0  0
  7  8  1  0  0  0  0
  7 10  2  3  0  0  0
  8  9  2  0  0  0  0
 10 15  1  0  0  0  0
 11 12  1  0  0  0  0
 11 13  1  0  0  0  0
 13 14  2  0  0  0  0
 15 16  2  0  0  0  0
 15 20  1  0  0  0  0
 16 17  1  0  0  0  0
 17 18  2  0  0  0  0
 18 19  1  0  0  0  0
 18 21  1  0  0  0  0
 19 20  2  0  0  0  0
 21 22  2  0  0  0  0
 21 25  1  0  0  0  0
 22 23  1  0  0  0  0
 23 24  1  0  0  0  0
 23 26  1  0  0  0  0
 24 25  2  0  0  0  0
  2 27  1  0  0  0  0
  3 28  1  0  0  0  0
  3 29  1  0  0  0  0
  4 30  1  0  0  0  0
  5 31  1  0  0  0  0
 10 32  1  0  0  0  0
 11 33  1  0  0  0  0
 12 34  1  0  0  0  0
 12 35  1  0  0  0  0
 12 36  1  0  0  0  0
 16 37  1  0  0  0  0
 17 38  1  0  0  0  0
 19 39  1  0  0  0  0
 20 40  1  0  0  0  0
 22 41  1  0  0  0  0
 25 42  1  0  0  0  0
 26 43  1  0  0  0  0
 26 44  1  0  0  0  0
 26 45  1  0  0  0  0
M  END
> <Name>
19

> <IC50[uM]>
0.015

$$$$
19
  -OEChem-05192314333D
 Structure written by MMmdl.
 45 48  0     1  0  0  0  0  0999 V2000
   -6.3863   12.3686  -12.0106 C   0  0  0  0  0  0  0  0  0  0  0  0
   -6.5303   11.8179  -10.7351 C   0  0  0  0  0  0  0  0  0  0  0  0
   -7.7274   10.5747  -13.0322 C   0  0  0  0  0  0  0  0  0  0  0  0
   -6.9939   11.7717  -13.1290 C   0  0  0  0  0  0  0  0  0  0  0  0
   -7.8233   10.0108  -11.7572 C   0  0  0  0  0  0  0  0  0  0  0  0
   -7.2504   10.6246  -10.6026 C   0  0  0  0  0  0  0  0  0  0  0  0
   -7.6148    9.7488   -9.5126 C   0  0  0  0  0  0  0  0  0  0  0  0
   -8.2772    8.7301   -9.9866 N   0  0  0  0  0  0  0  0  0  0  0  0
   -8.4133    8.8585  -11.2996 N   0  0  0  0  0  0  0  0  0  0  0  0
   -7.3367    9.8906   -8.0265 C   0  0  0  0  0  0  0  0  0  0  0  0
   -4.3739   13.6178  -11.5022 N   0  0  0  0  0  0  0  0  0  0  0  0
   -3.4056   14.7196  -11.5963 C   0  0  0  0  0  0  0  0  0  0  0  0
   -5.5407   13.6198  -12.1903 C   0  0  0  0  0  0  0  0  0  0  0  0
   -5.8948   14.5296  -12.9394 O   0  0  0  0  0  0  0  0  0  0  0  0
   -5.9610   10.4852   -7.7361 C   0  0  0  0  0  0  0  0  0  0  0  0
   -4.8098    9.7648   -8.0558 C   0  0  0  0  0  0  0  0  0  0  0  0
   -3.5520   10.3132   -7.8064 C   0  0  0  0  0  0  0  0  0  0  0  0
   -3.4430   11.5871   -7.2363 C   0  0  3  0  0  0  0  0  0  0  0  0
   -4.5944   12.3027   -6.9144 C   0  0  0  0  0  0  0  0  0  0  0  0
   -5.8504   11.7539   -7.1603 C   0  0  0  0  0  0  0  0  0  0  0  0
   -2.0991   12.1752   -6.9687 C   0  0  0  0  0  0  0  0  0  0  0  0
   -1.7663   13.4191   -6.4362 C   0  0  0  0  0  0  0  0  0  0  0  0
   -0.4291   13.4776   -6.3870 N   0  0  0  0  0  0  0  0  0  0  0  0
    0.1723   12.4029   -6.8190 N   0  0  0  0  0  0  0  0  0  0  0  0
   -0.8029   11.5945   -7.2007 C   0  0  0  0  0  0  0  0  0  0  0  0
    0.3904   14.5868   -5.9117 C   0  0  0  0  0  0  0  0  0  0  0  0
   -6.0966   12.3009   -9.8720 H   0  0  0  0  0  0  0  0  0  0  0  0
   -8.1900   10.1177  -13.8945 H   0  0  0  0  0  0  0  0  0  0  0  0
   -6.8945   12.2471  -14.0936 H   0  0  0  0  0  0  0  0  0  0  0  0
   -8.0374    9.6016   -7.2571 H   0  0  0  0  0  0  0  0  0  0  0  0
   -4.1641   12.8399  -10.9098 H   0  0  0  0  0  0  0  0  0  0  0  0
   -2.5387   14.5023  -10.9550 H   0  0  0  0  0  0  0  0  0  0  0  0
   -3.0724   14.8267  -12.6391 H   0  0  0  0  0  0  0  0  0  0  0  0
   -3.8811   15.6547  -11.2654 H   0  0  0  0  0  0  0  0  0  0  0  0
   -4.8927    8.7823   -8.4965 H   0  0  0  0  0  0  0  0  0  0  0  0
   -3.0309    9.6180   -7.1317 H   0  0  0  0  0  0  0  0  0  0  0  0
   -3.0255   10.3514   -8.7715 H   0  0  0  0  0  0  0  0  0  0  0  0
   -3.4418   12.0376   -8.2398 H   0  0  0  0  0  0  0  0  0  0  0  0
   -4.5126   13.2851   -6.4732 H   0  0  0  0  0  0  0  0  0  0  0  0
   -6.7407   12.3097   -6.9056 H   0  0  0  0  0  0  0  0  0  0  0  0
   -2.4554   14.1894   -6.1228 H   0  0  0  0  0  0  0  0  0  0  0  0
   -0.6455   10.6177   -7.6337 H   0  0  0  0  0  0  0  0  0  0  0  0
    1.4543   14.3214   -5.9997 H   0  0  0  0  0  0  0  0  0  0  0  0
    0.1843   15.4810   -6.5183 H   0  0  0  0  0  0  0  0  0  0  0  0
    0.1504   14.7949   -4.8586 H   0  0  0  0  0  0  0  0  0  0  0  0
  1  2  2  0  0  0  0
  1  4  1  0  0  0  0
  1 13  1  0  0  0  0
  2  6  1  0  0  0  0
  3  4  2  0  0  0  0
  3  5  1  0  0  0  0
  5  6  2  0  0  0  0
  5  9  1  0  0  0  0
  6  7  1  0  0  0  0
  7  8  1  0  0  0  0
  7 10  2  3  0  0  0
  8  9  2  0  0  0  0
 10 15  1  0  0  0  0
 11 12  1  0  0  0  0
 11 13  1  0  0  0  0
 13 14  2  0  0  0  0
 15 16  2  0  0  0  0
 15 20  1  0  0  0  0
 16 17  1  0  0  0  0
 17 18  1  0  0  0  0
 18 19  1  0  0  0  0
 18 21  1  0  0  0  0
 19 20  2  0  0  0  0
 21 22  2  0  0  0  0
 21 25  1  0  0  0  0
 22 23  1  0  0  0  0
 23 24  1  0  0  0  0
 23 26  1  0  0  0  0
 24 25  2  0  0  0  0
  2 27  1  0  0  0  0
  3 28  1  0  0  0  0
  4 29  1  0  0  0  0
 10 30  1  0  0  0  0
 11 31  1  0  0  0  0
 12 32  1  0  0  0  0
 12 33  1  0  0  0  0
 12 34  1  0  0  0  0
 16 35  1  0  0  0  0
 17 36  1  0  0  0  0
 17 37  1  0  0  0  0
 18 38  1  0  0  0  0
 19 39  1  0  0  0  0
 20 40  1  0  0  0  0
 22 41  1  0  0  0  0
 25 42  1  0  0  0  0
 26 43  1  0  0  0  0
 26 44  1  0  0  0  0
 26 45  1  0  0  0  0
M  END
> <Name>
19

> <IC50[uM]>
0.015

$$$$
19
  -OEChem-05192314333D
 Structure written by MMmdl.
 45 48  0     1  0  0  0  0  0999 V2000
   -6.3863   12.3686  -12.0106 C   0  0  3  0  0  0  0  0  0  0  0  0
   -6.5303   11.8179  -10.7351 C   0  0  0  0  0  0  0  0  0  0  0  0
   -7.7274   10.5747  -13.0322 C   0  0  0  0  0  0  0  0  0  0  0  0
   -6.9939   11.7717  -13.1290 C   0  0  0  0  0  0  0  0  0  0  0  0
   -7.8233   10.0108  -11.7572 C   0  0  0  0  0  0  0  0  0  0  0  0
   -7.2504   10.6246  -10.6026 C   0  0  0  0  0  0  0  0  0  0  0  0
   -7.6148    9.7488   -9.5126 C   0  0  0  0  0  0  0  0  0  0  0  0
   -8.2772    8.7301   -9.9866 N   0  0  0  0  0  0  0  0  0  0  0  0
   -8.4133    8.8585  -11.2996 N   0  0  0  0  0  0  0  0  0  0  0  0
   -7.3367    9.8906   -8.0265 C   0  0  0  0  0  0  0  0  0  0  0  0
   -4.3739   13.6178  -11.5022 N   0  0  0  0  0  0  0  0  0  0  0  0
   -3.4056   14.7196  -11.5963 C   0  0  0  0  0  0  0  0  0  0  0  0
   -5.5407   13.6198  -12.1903 C   0  0  0  0  0  0  0  0  0  0  0  0
   -5.8948   14.5296  -12.9394 O   0  0  0  0  0  0  0  0  0  0  0  0
   -5.9610   10.4852   -7.7361 C   0  0  0  0  0  0  0  0  0  0  0  0
   -4.8098    9.7648   -8.0558 C   0  0  0  0  0  0  0  0  0  0  0  0
   -3.5520   10.3132   -7.8064 C   0  0  0  0  0  0  0  0  0  0  0  0
   -3.4430   11.5871   -7.2363 C   0  0  0  0  0  0  0  0  0  0  0  0
   -4.5944   12.3027   -6.9144 C   0  0  0  0  0  0  0  0  0  0  0  0
   -5.8504   11.7539   -7.1603 C   0  0  0  0  0  0  0  0  0  0  0  0
   -2.0991   12.1752   -6.9687 C   0  0  0  0  0  0  0  0  0  0  0  0
   -1.7663   13.4191   -6.4362 C   0  0  0  0  0  0  0  0  0  0  0  0
   -0.4291   13.4776   -6.3870 N   0  0  0  0  0  0  0  0  0  0  0  0
    0.1723   12.4029   -6.8190 N   0  0  0  0  0  0  0  0  0  0  0  0
   -0.8029   11.5945   -7.2007 C   0  0  0  0  0  0  0  0  0  0  0  0
    0.3904   14.5868   -5.9117 C   0  0  0  0  0  0  0  0  0  0  0  0
   -7.2799   12.9895  -11.8495 H   0  0  0  0  0  0  0  0  0  0  0  0
   -6.0966   12.3009   -9.8720 H   0  0  0  0  0  0  0  0  0  0  0  0
   -8.1900   10.1177  -13.8945 H   0  0  0  0  0  0  0  0  0  0  0  0
   -7.6841   12.5226  -13.5411 H   0  0  0  0  0  0  0  0  0  0  0  0
   -6.1868   11.5800  -13.8514 H   0  0  0  0  0  0  0  0  0  0  0  0
   -8.0374    9.6016   -7.2571 H   0  0  0  0  0  0  0  0  0  0  0  0
   -4.1641   12.8399  -10.9098 H   0  0  0  0  0  0  0  0  0  0  0  0
   -2.5387   14.5023  -10.9550 H   0  0  0  0  0  0  0  0  0  0  0  0
   -3.0724   14.8267  -12.6391 H   0  0  0  0  0  0  0  0  0  0  0  0
   -3.8811   15.6547  -11.2654 H   0  0  0  0  0  0  0  0  0  0  0  0
   -4.8927    8.7823   -8.4965 H   0  0  0  0  0  0  0  0  0  0  0  0
   -2.6613    9.7546   -8.0533 H   0  0  0  0  0  0  0  0  0  0  0  0
   -4.5126   13.2851   -6.4732 H   0  0  0  0  0  0  0  0  0  0  0  0
   -6.7407   12.3097   -6.9056 H   0  0  0  0  0  0  0  0  0  0  0  0
   -2.4554   14.1894   -6.1228 H   0  0  0  0  0  0  0  0  0  0  0  0
   -0.6455   10.6177   -7.6337 H   0  0  0  0  0  0  0  0  0  0  0  0
    1.4543   14.3214   -5.9997 H   0  0  0  0  0  0  0  0  0  0  0  0
    0.1843   15.4810   -6.5183 H   0  0  0  0  0  0  0  0  0  0  0  0
    0.1504   14.7949   -4.8586 H   0  0  0  0  0  0  0  0  0  0  0  0
  1  2  1  0  0  0  0
  1  4  1  0  0  0  0
  1 13  1  0  0  0  0
  2  6  2  0  0  0  0
  3  4  1  0  0  0  0
  3  5  2  0  0  0  0
  5  6  1  0  0  0  0
  5  9  1  0  0  0  0
  6  7  1  0  0  0  0
  7  8  1  0  0  0  0
  7 10  2  3  0  0  0
  8  9  2  0  0  0  0
 10 15  1  0  0  0  0
 11 12  1  0  0  0  0
 11 13  1  0  0  0  0
 13 14  2  0  0  0  0
 15 16  2  0  0  0  0
 15 20  1  0  0  0  0
 16 17  1  0  0  0  0
 17 18  2  0  0  0  0
 18 19  1  0  0  0  0
 18 21  1  0  0  0  0
 19 20  2  0  0  0  0
 21 22  2  0  0  0  0
 21 25  1  0  0  0  0
 22 23  1  0  0  0  0
 23 24  1  0  0  0  0
 23 26  1  0  0  0  0
 24 25  2  0  0  0  0
  1 27  1  0  0  0  0
  2 28  1  0  0  0  0
  3 29  1  0  0  0  0
  4 30  1  0  0  0  0
  4 31  1  0  0  0  0
 10 32  1  0  0  0  0
 11 33  1  0  0  0  0
 12 34  1  0  0  0  0
 12 35  1  0  0  0  0
 12 36  1  0  0  0  0
 16 37  1  0  0  0  0
 17 38  1  0  0  0  0
 19 39  1  0  0  0  0
 20 40  1  0  0  0  0
 22 41  1  0  0  0  0
 25 42  1  0  0  0  0
 26 43  1  0  0  0  0
 26 44  1  0  0  0  0
 26 45  1  0  0  0  0
M  END
> <Name>
19

> <IC50[uM]>
0.015

$$$$
19
  -OEChem-05192314333D
 Structure written by MMmdl.
 45 48  0     1  0  0  0  0  0999 V2000
   -6.3863   12.3686  -12.0106 C   0  0  0  0  0  0  0  0  0  0  0  0
   -6.5303   11.8179  -10.7351 C   0  0  0  0  0  0  0  0  0  0  0  0
   -7.7274   10.5747  -13.0322 C   0  0  0  0  0  0  0  0  0  0  0  0
   -6.9939   11.7717  -13.1290 C   0  0  0  0  0  0  0  0  0  0  0  0
   -7.8233   10.0108  -11.7572 C   0  0  0  0  0  0  0  0  0  0  0  0
   -7.2504   10.6246  -10.6026 C   0  0  3  0  0  0  0  0  0  0  0  0
   -7.6148    9.7488   -9.5126 C   0  0  0  0  0  0  0  0  0  0  0  0
   -8.2772    8.7301   -9.9866 N   0  0  0  0  0  0  0  0  0  0  0  0
   -8.4133    8.8585  -11.2996 N   0  0  0  0  0  0  0  0  0  0  0  0
   -7.3367    9.8906   -8.0265 C   0  0  0  0  0  0  0  0  0  0  0  0
   -4.3739   13.6178  -11.5022 N   0  0  0  0  0  0  0  0  0  0  0  0
   -3.4056   14.7196  -11.5963 C   0  0  0  0  0  0  0  0  0  0  0  0
   -5.5407   13.6198  -12.1903 C   0  0  0  0  0  0  0  0  0  0  0  0
   -5.8948   14.5296  -12.9394 O   0  0  0  0  0  0  0  0  0  0  0  0
   -5.9610   10.4852   -7.7361 C   0  0  0  0  0  0  0  0  0  0  0  0
   -4.8098    9.7648   -8.0558 C   0  0  0  0  0  0  0  0  0  0  0  0
   -3.5520   10.3132   -7.8064 C   0  0  0  0  0  0  0  0  0  0  0  0
   -3.4430   11.5871   -7.2363 C   0  0  0  0  0  0  0  0  0  0  0  0
   -4.5944   12.3027   -6.9144 C   0  0  0  0  0  0  0  0  0  0  0  0
   -5.8504   11.7539   -7.1603 C   0  0  0  0  0  0  0  0  0  0  0  0
   -2.0991   12.1752   -6.9687 C   0  0  0  0  0  0  0  0  0  0  0  0
   -1.7663   13.4191   -6.4362 C   0  0  0  0  0  0  0  0  0  0  0  0
   -0.4291   13.4776   -6.3870 N   0  0  0  0  0  0  0  0  0  0  0  0
    0.1723   12.4029   -6.8190 N   0  0  0  0  0  0  0  0  0  0  0  0
   -0.8029   11.5945   -7.2007 C   0  0  0  0  0  0  0  0  0  0  0  0
    0.3904   14.5868   -5.9117 C   0  0  0  0  0  0  0  0  0  0  0  0
   -6.0966   12.3009   -9.8720 H   0  0  0  0  0  0  0  0  0  0  0  0
   -8.1900   10.1177  -13.8945 H   0  0  0  0  0  0  0  0  0  0  0  0
   -7.6841   12.5226  -13.5411 H   0  0  0  0  0  0  0  0  0  0  0  0
   -6.1868   11.5800  -13.8514 H   0  0  0  0  0  0  0  0  0  0  0  0
   -6.3254   10.0493  -10.7557 H   0  0  0  0  0  0  0  0  0  0  0  0
   -8.0374    9.6016   -7.2571 H   0  0  0  0  0  0  0  0  0  0  0  0
   -4.1641   12.8399  -10.9098 H   0  0  0  0  0  0  0  0  0  0  0  0
   -2.5387   14.5023  -10.9550 H   0  0  0  0  0  0  0  0  0  0  0  0
   -3.0724   14.8267  -12.6391 H   0  0  0  0  0  0  0  0  0  0  0  0
   -3.8811   15.6547  -11.2654 H   0  0  0  0  0  0  0  0  0  0  0  0
   -4.8927    8.7823   -8.4965 H   0  0  0  0  0  0  0  0  0  0  0  0
   -2.6613    9.7546   -8.0533 H   0  0  0  0  0  0  0  0  0  0  0  0
   -4.5126   13.2851   -6.4732 H   0  0  0  0  0  0  0  0  0  0  0  0
   -6.7407   12.3097   -6.9056 H   0  0  0  0  0  0  0  0  0  0  0  0
   -2.4554   14.1894   -6.1228 H   0  0  0  0  0  0  0  0  0  0  0  0
   -0.6455   10.6177   -7.6337 H   0  0  0  0  0  0  0  0  0  0  0  0
    1.4543   14.3214   -5.9997 H   0  0  0  0  0  0  0  0  0  0  0  0
    0.1843   15.4810   -6.5183 H   0  0  0  0  0  0  0  0  0  0  0  0
    0.1504   14.7949   -4.8586 H   0  0  0  0  0  0  0  0  0  0  0  0
  1  2  2  0  0  0  0
  1  4  1  0  0  0  0
  1 13  1  0  0  0  0
  2  6  1  0  0  0  0
  3  4  1  0  0  0  0
  3  5  2  0  0  0  0
  5  6  1  0  0  0  0
  5  9  1  0  0  0  0
  6  7  1  0  0  0  0
  7  8  1  0  0  0  0
  7 10  2  3  0  0  0
  8  9  2  0  0  0  0
 10 15  1  0  0  0  0
 11 12  1  0  0  0  0
 11 13  1  0  0  0  0
 13 14  2  0  0  0  0
 15 16  2  0  0  0  0
 15 20  1  0  0  0  0
 16 17  1  0  0  0  0
 17 18  2  0  0  0  0
 18 19  1  0  0  0  0
 18 21  1  0  0  0  0
 19 20  2  0  0  0  0
 21 22  2  0  0  0  0
 21 25  1  0  0  0  0
 22 23  1  0  0  0  0
 23 24  1  0  0  0  0
 23 26  1  0  0  0  0
 24 25  2  0  0  0  0
  2 27  1  0  0  0  0
  3 28  1  0  0  0  0
  4 29  1  0  0  0  0
  4 30  1  0  0  0  0
  6 31  1  0  0  0  0
 10 32  1  0  0  0  0
 11 33  1  0  0  0  0
 12 34  1  0  0  0  0
 12 35  1  0  0  0  0
 12 36  1  0  0  0  0
 16 37  1  0  0  0  0
 17 38  1  0  0  0  0
 19 39  1  0  0  0  0
 20 40  1  0  0  0  0
 22 41  1  0  0  0  0
 25 42  1  0  0  0  0
 26 43  1  0  0  0  0
 26 44  1  0  0  0  0
 26 45  1  0  0  0  0
M  END
> <Name>
19

> <IC50[uM]>
0.015

$$$$
19
  -OEChem-05192314333D
 Structure written by MMmdl.
 45 48  0     0  0  0  0  0  0999 V2000
   -6.3863   12.3686  -12.0106 C   0  0  0  0  0  0  0  0  0  0  0  0
   -6.5303   11.8179  -10.7351 C   0  0  0  0  0  0  0  0  0  0  0  0
   -7.7274   10.5747  -13.0322 C   0  0  0  0  0  0  0  0  0  0  0  0
   -6.9939   11.7717  -13.1290 C   0  0  0  0  0  0  0  0  0  0  0  0
   -7.8233   10.0108  -11.7572 C   0  0  0  0  0  0  0  0  0  0  0  0
   -7.2504   10.6246  -10.6026 C   0  0  0  0  0  0  0  0  0  0  0  0
   -7.6148    9.7488   -9.5126 C   0  0  0  0  0  0  0  0  0  0  0  0
   -8.2772    8.7301   -9.9866 N   0  0  0  0  0  0  0  0  0  0  0  0
   -8.4133    8.8585  -11.2996 N   0  0  0  0  0  0  0  0  0  0  0  0
   -7.3367    9.8906   -8.0265 C   0  0  0  0  0  0  0  0  0  0  0  0
   -4.3739   13.6178  -11.5022 N   0  0  0  0  0  0  0  0  0  0  0  0
   -3.4056   14.7196  -11.5963 C   0  0  0  0  0  0  0  0  0  0  0  0
   -5.5407   13.6198  -12.1903 C   0  0  0  0  0  0  0  0  0  0  0  0
   -5.8948   14.5296  -12.9394 O   0  0  0  0  0  0  0  0  0  0  0  0
   -5.9610   10.4852   -7.7361 C   0  0  0  0  0  0  0  0  0  0  0  0
   -4.8098    9.7648   -8.0558 C   0  0  0  0  0  0  0  0  0  0  0  0
   -3.5520   10.3132   -7.8064 C   0  0  0  0  0  0  0  0  0  0  0  0
   -3.4430   11.5871   -7.2363 C   0  0  0  0  0  0  0  0  0  0  0  0
   -4.5944   12.3027   -6.9144 C   0  0  0  0  0  0  0  0  0  0  0  0
   -5.8504   11.7539   -7.1603 C   0  0  0  0  0  0  0  0  0  0  0  0
   -2.0991   12.1752   -6.9687 C   0  0  0  0  0  0  0  0  0  0  0  0
   -1.7663   13.4191   -6.4362 C   0  0  0  0  0  0  0  0  0  0  0  0
   -0.4291   13.4776   -6.3870 N   0  0  0  0  0  0  0  0  0  0  0  0
    0.1723   12.4029   -6.8190 N   0  0  0  0  0  0  0  0  0  0  0  0
   -0.8029   11.5945   -7.2007 C   0  0  0  0  0  0  0  0  0  0  0  0
    0.3904   14.5868   -5.9117 C   0  0  0  0  0  0  0  0  0  0  0  0
   -6.0966   12.3009   -9.8720 H   0  0  0  0  0  0  0  0  0  0  0  0
   -8.7487   10.7774  -13.3871 H   0  0  0  0  0  0  0  0  0  0  0  0
   -7.2503    9.8346  -13.6914 H   0  0  0  0  0  0  0  0  0  0  0  0
   -7.6841   12.5226  -13.5411 H   0  0  0  0  0  0  0  0  0  0  0  0
   -6.1868   11.5800  -13.8514 H   0  0  0  0  0  0  0  0  0  0  0  0
   -8.0374    9.6016   -7.2571 H   0  0  0  0  0  0  0  0  0  0  0  0
   -4.1641   12.8399  -10.9098 H   0  0  0  0  0  0  0  0  0  0  0  0
   -2.5387   14.5023  -10.9550 H   0  0  0  0  0  0  0  0  0  0  0  0
   -3.0724   14.8267  -12.6391 H   0  0  0  0  0  0  0  0  0  0  0  0
   -3.8811   15.6547  -11.2654 H   0  0  0  0  0  0  0  0  0  0  0  0
   -4.8927    8.7823   -8.4965 H   0  0  0  0  0  0  0  0  0  0  0  0
   -2.6613    9.7546   -8.0533 H   0  0  0  0  0  0  0  0  0  0  0  0
   -4.5126   13.2851   -6.4732 H   0  0  0  0  0  0  0  0  0  0  0  0
   -6.7407   12.3097   -6.9056 H   0  0  0  0  0  0  0  0  0  0  0  0
   -2.4554   14.1894   -6.1228 H   0  0  0  0  0  0  0  0  0  0  0  0
   -0.6455   10.6177   -7.6337 H   0  0  0  0  0  0  0  0  0  0  0  0
    1.4543   14.3214   -5.9997 H   0  0  0  0  0  0  0  0  0  0  0  0
    0.1843   15.4810   -6.5183 H   0  0  0  0  0  0  0  0  0  0  0  0
    0.1504   14.7949   -4.8586 H   0  0  0  0  0  0  0  0  0  0  0  0
  1  2  2  0  0  0  0
  1  4  1  0  0  0  0
  1 13  1  0  0  0  0
  2  6  1  0  0  0  0
  3  4  1  0  0  0  0
  3  5  1  0  0  0  0
  5  6  2  0  0  0  0
  5  9  1  0  0  0  0
  6  7  1  0  0  0  0
  7  8  1  0  0  0  0
  7 10  2  3  0  0  0
  8  9  2  0  0  0  0
 10 15  1  0  0  0  0
 11 12  1  0  0  0  0
 11 13  1  0  0  0  0
 13 14  2  0  0  0  0
 15 16  2  0  0  0  0
 15 20  1  0  0  0  0
 16 17  1  0  0  0  0
 17 18  2  0  0  0  0
 18 19  1  0  0  0  0
 18 21  1  0  0  0  0
 19 20  2  0  0  0  0
 21 22  2  0  0  0  0
 21 25  1  0  0  0  0
 22 23  1  0  0  0  0
 23 24  1  0  0  0  0
 23 26  1  0  0  0  0
 24 25  2  0  0  0  0
  2 27  1  0  0  0  0
  3 28  1  0  0  0  0
  3 29  1  0  0  0  0
  4 30  1  0  0  0  0
  4 31  1  0  0  0  0
 10 32  1  0  0  0  0
 11 33  1  0  0  0  0
 12 34  1  0  0  0  0
 12 35  1  0  0  0  0
 12 36  1  0  0  0  0
 16 37  1  0  0  0  0
 17 38  1  0  0  0  0
 19 39  1  0  0  0  0
 20 40  1  0  0  0  0
 22 41  1  0  0  0  0
 25 42  1  0  0  0  0
 26 43  1  0  0  0  0
 26 44  1  0  0  0  0
 26 45  1  0  0  0  0
M  END
> <Name>
19

> <IC50[uM]>
0.015

$$$$
19
  -OEChem-05192314333D
 Structure written by MMmdl.
 45 48  0     1  0  0  0  0  0999 V2000
   -6.3863   12.3686  -12.0106 C   0  0  0  0  0  0  0  0  0  0  0  0
   -6.5303   11.8179  -10.7351 C   0  0  0  0  0  0  0  0  0  0  0  0
   -7.7274   10.5747  -13.0322 C   0  0  0  0  0  0  0  0  0  0  0  0
   -6.9939   11.7717  -13.1290 C   0  0  0  0  0  0  0  0  0  0  0  0
   -7.8233   10.0108  -11.7572 C   0  0  0  0  0  0  0  0  0  0  0  0
   -7.2504   10.6246  -10.6026 C   0  0  0  0  0  0  0  0  0  0  0  0
   -7.6148    9.7488   -9.5126 C   0  0  0  0  0  0  0  0  0  0  0  0
   -8.2772    8.7301   -9.9866 N   0  0  0  0  0  0  0  0  0  0  0  0
   -8.4133    8.8585  -11.2996 N   0  0  0  0  0  0  0  0  0  0  0  0
   -7.3367    9.8906   -8.0265 C   0  0  0  0  0  0  0  0  0  0  0  0
   -4.3739   13.6178  -11.5022 N   0  0  0  0  0  0  0  0  0  0  0  0
   -3.4056   14.7196  -11.5963 C   0  0  0  0  0  0  0  0  0  0  0  0
   -5.5407   13.6198  -12.1903 C   0  0  0  0  0  0  0  0  0  0  0  0
   -5.8948   14.5296  -12.9394 O   0  0  0  0  0  0  0  0  0  0  0  0
   -5.9610   10.4852   -7.7361 C   0  0  3  0  0  0  0  0  0  0  0  0
   -4.8098    9.7648   -8.0558 C   0  0  0  0  0  0  0  0  0  0  0  0
   -3.5520   10.3132   -7.8064 C   0  0  0  0  0  0  0  0  0  0  0  0
   -3.4430   11.5871   -7.2363 C   0  0  0  0  0  0  0  0  0  0  0  0
   -4.5944   12.3027   -6.9144 C   0  0  0  0  0  0  0  0  0  0  0  0
   -5.8504   11.7539   -7.1603 C   0  0  0  0  0  0  0  0  0  0  0  0
   -2.0991   12.1752   -6.9687 C   0  0  0  0  0  0  0  0  0  0  0  0
   -1.7663   13.4191   -6.4362 C   0  0  0  0  0  0  0  0  0  0  0  0
   -0.4291   13.4776   -6.3870 N   0  0  0  0  0  0  0  0  0  0  0  0
    0.1723   12.4029   -6.8190 N   0  0  0  0  0  0  0  0  0  0  0  0
   -0.8029   11.5945   -7.2007 C   0  0  0  0  0  0  0  0  0  0  0  0
    0.3904   14.5868   -5.9117 C   0  0  0  0  0  0  0  0  0  0  0  0
   -6.0966   12.3009   -9.8720 H   0  0  0  0  0  0  0  0  0  0  0  0
   -8.1900   10.1177  -13.8945 H   0  0  0  0  0  0  0  0  0  0  0  0
   -6.8945   12.2471  -14.0936 H   0  0  0  0  0  0  0  0  0  0  0  0
   -8.0374    9.6016   -7.2571 H   0  0  0  0  0  0  0  0  0  0  0  0
   -4.1641   12.8399  -10.9098 H   0  0  0  0  0  0  0  0  0  0  0  0
   -2.5387   14.5023  -10.9550 H   0  0  0  0  0  0  0  0  0  0  0  0
   -3.0724   14.8267  -12.6391 H   0  0  0  0  0  0  0  0  0  0  0  0
   -3.8811   15.6547  -11.2654 H   0  0  0  0  0  0  0  0  0  0  0  0
   -5.9721   10.0288   -6.7353 H   0  0  0  0  0  0  0  0  0  0  0  0
   -4.8927    8.7823   -8.4965 H   0  0  0  0  0  0  0  0  0  0  0  0
   -2.6613    9.7546   -8.0533 H   0  0  0  0  0  0  0  0  0  0  0  0
   -4.5126   13.2851   -6.4732 H   0  0  0  0  0  0  0  0  0  0  0  0
   -6.3761   12.4521   -7.8283 H   0  0  0  0  0  0  0  0  0  0  0  0
   -6.3718   11.7094   -6.1927 H   0  0  0  0  0  0  0  0  0  0  0  0
   -2.4554   14.1894   -6.1228 H   0  0  0  0  0  0  0  0  0  0  0  0
   -0.6455   10.6177   -7.6337 H   0  0  0  0  0  0  0  0  0  0  0  0
    1.4543   14.3214   -5.9997 H   0  0  0  0  0  0  0  0  0  0  0  0
    0.1843   15.4810   -6.5183 H   0  0  0  0  0  0  0  0  0  0  0  0
    0.1504   14.7949   -4.8586 H   0  0  0  0  0  0  0  0  0  0  0  0
  1  2  2  0  0  0  0
  1  4  1  0  0  0  0
  1 13  1  0  0  0  0
  2  6  1  0  0  0  0
  3  4  2  0  0  0  0
  3  5  1  0  0  0  0
  5  6  2  0  0  0  0
  5  9  1  0  0  0  0
  6  7  1  0  0  0  0
  7  8  1  0  0  0  0
  7 10  2  3  0  0  0
  8  9  2  0  0  0  0
 10 15  1  0  0  0  0
 11 12  1  0  0  0  0
 11 13  1  0  0  0  0
 13 14  2  0  0  0  0
 15 16  1  0  0  0  0
 15 20  1  0  0  0  0
 16 17  2  0  0  0  0
 17 18  1  0  0  0  0
 18 19  2  0  0  0  0
 18 21  1  0  0  0  0
 19 20  1  0  0  0  0
 21 22  2  0  0  0  0
 21 25  1  0  0  0  0
 22 23  1  0  0  0  0
 23 24  1  0  0  0  0
 23 26  1  0  0  0  0
 24 25  2  0  0  0  0
  2 27  1  0  0  0  0
  3 28  1  0  0  0  0
  4 29  1  0  0  0  0
 10 30  1  0  0  0  0
 11 31  1  0  0  0  0
 12 32  1  0  0  0  0
 12 33  1  0  0  0  0
 12 34  1  0  0  0  0
 15 35  1  0  0  0  0
 16 36  1  0  0  0  0
 17 37  1  0  0  0  0
 19 38  1  0  0  0  0
 20 39  1  0  0  0  0
 20 40  1  0  0  0  0
 22 41  1  0  0  0  0
 25 42  1  0  0  0  0
 26 43  1  0  0  0  0
 26 44  1  0  0  0  0
 26 45  1  0  0  0  0
M  END
> <Name>
19

> <IC50[uM]>
0.015

$$$$
19
  -OEChem-05192314333D
 Structure written by MMmdl.
 45 48  0     1  0  0  0  0  0999 V2000
   -6.3863   12.3686  -12.0106 C   0  0  0  0  0  0  0  0  0  0  0  0
   -6.5303   11.8179  -10.7351 C   0  0  0  0  0  0  0  0  0  0  0  0
   -7.7274   10.5747  -13.0322 C   0  0  0  0  0  0  0  0  0  0  0  0
   -6.9939   11.7717  -13.1290 C   0  0  0  0  0  0  0  0  0  0  0  0
   -7.8233   10.0108  -11.7572 C   0  0  0  0  0  0  0  0  0  0  0  0
   -7.2504   10.6246  -10.6026 C   0  0  0  0  0  0  0  0  0  0  0  0
   -7.6148    9.7488   -9.5126 C   0  0  3  0  0  0  0  0  0  0  0  0
   -8.2772    8.7301   -9.9866 N   0  0  0  0  0  0  0  0  0  0  0  0
   -8.4133    8.8585  -11.2996 N   0  0  0  0  0  0  0  0  0  0  0  0
   -7.3367    9.8906   -8.0265 C   0  0  0  0  0  0  0  0  0  0  0  0
   -4.3739   13.6178  -11.5022 N   0  0  0  0  0  0  0  0  0  0  0  0
   -3.4056   14.7196  -11.5963 C   0  0  0  0  0  0  0  0  0  0  0  0
   -5.5407   13.6198  -12.1903 C   0  0  0  0  0  0  0  0  0  0  0  0
   -5.8948   14.5296  -12.9394 O   0  0  0  0  0  0  0  0  0  0  0  0
   -5.9610   10.4852   -7.7361 C   0  0  0  0  0  0  0  0  0  0  0  0
   -4.8098    9.7648   -8.0558 C   0  0  0  0  0  0  0  0  0  0  0  0
   -3.5520   10.3132   -7.8064 C   0  0  0  0  0  0  0  0  0  0  0  0
   -3.4430   11.5871   -7.2363 C   0  0  0  0  0  0  0  0  0  0  0  0
   -4.5944   12.3027   -6.9144 C   0  0  0  0  0  0  0  0  0  0  0  0
   -5.8504   11.7539   -7.1603 C   0  0  0  0  0  0  0  0  0  0  0  0
   -2.0991   12.1752   -6.9687 C   0  0  0  0  0  0  0  0  0  0  0  0
   -1.7663   13.4191   -6.4362 C   0  0  0  0  0  0  0  0  0  0  0  0
   -0.4291   13.4776   -6.3870 N   0  0  0  0  0  0  0  0  0  0  0  0
    0.1723   12.4029   -6.8190 N   0  0  0  0  0  0  0  0  0  0  0  0
   -0.8029   11.5945   -7.2007 C   0  0  0  0  0  0  0  0  0  0  0  0
    0.3904   14.5868   -5.9117 C   0  0  0  0  0  0  0  0  0  0  0  0
   -6.0966   12.3009   -9.8720 H   0  0  0  0  0  0  0  0  0  0  0  0
   -8.1900   10.1177  -13.8945 H   0  0  0  0  0  0  0  0  0  0  0  0
   -6.8945   12.2471  -14.0936 H   0  0  0  0  0  0  0  0  0  0  0  0
   -6.6717    9.1968   -9.6383 H   0  0  0  0  0  0  0  0  0  0  0  0
   -8.0374    9.6016   -7.2571 H   0  0  0  0  0  0  0  0  0  0  0  0
   -4.1641   12.8399  -10.9098 H   0  0  0  0  0  0  0  0  0  0  0  0
   -2.5387   14.5023  -10.9550 H   0  0  0  0  0  0  0  0  0  0  0  0
   -3.0724   14.8267  -12.6391 H   0  0  0  0  0  0  0  0  0  0  0  0
   -3.8811   15.6547  -11.2654 H   0  0  0  0  0  0  0  0  0  0  0  0
   -4.8927    8.7823   -8.4965 H   0  0  0  0  0  0  0  0  0  0  0  0
   -2.6613    9.7546   -8.0533 H   0  0  0  0  0  0  0  0  0  0  0  0
   -4.5126   13.2851   -6.4732 H   0  0  0  0  0  0  0  0  0  0  0  0
   -6.3761   12.4521   -7.8283 H   0  0  0  0  0  0  0  0  0  0  0  0
   -6.3718   11.7094   -6.1927 H   0  0  0  0  0  0  0  0  0  0  0  0
   -2.4554   14.1894   -6.1228 H   0  0  0  0  0  0  0  0  0  0  0  0
   -0.6455   10.6177   -7.6337 H   0  0  0  0  0  0  0  0  0  0  0  0
    1.4543   14.3214   -5.9997 H   0  0  0  0  0  0  0  0  0  0  0  0
    0.1843   15.4810   -6.5183 H   0  0  0  0  0  0  0  0  0  0  0  0
    0.1504   14.7949   -4.8586 H   0  0  0  0  0  0  0  0  0  0  0  0
  1  2  2  0  0  0  0
  1  4  1  0  0  0  0
  1 13  1  0  0  0  0
  2  6  1  0  0  0  0
  3  4  2  0  0  0  0
  3  5  1  0  0  0  0
  5  6  2  0  0  0  0
  5  9  1  0  0  0  0
  6  7  1  0  0  0  0
  7  8  1  0  0  0  0
  7 10  1  0  0  0  0
  8  9  2  0  0  0  0
 10 15  2  3  0  0  0
 11 12  1  0  0  0  0
 11 13  1  0  0  0  0
 13 14  2  0  0  0  0
 15 16  1  0  0  0  0
 15 20  1  0  0  0  0
 16 17  2  0  0  0  0
 17 18  1  0  0  0  0
 18 19  2  0  0  0  0
 18 21  1  0  0  0  0
 19 20  1  0  0  0  0
 21 22  2  0  0  0  0
 21 25  1  0  0  0  0
 22 23  1  0  0  0  0
 23 24  1  0  0  0  0
 23 26  1  0  0  0  0
 24 25  2  0  0  0  0
  2 27  1  0  0  0  0
  3 28  1  0  0  0  0
  4 29  1  0  0  0  0
  7 30  1  0  0  0  0
 10 31  1  0  0  0  0
 11 32  1  0  0  0  0
 12 33  1  0  0  0  0
 12 34  1  0  0  0  0
 12 35  1  0  0  0  0
 16 36  1  0  0  0  0
 17 37  1  0  0  0  0
 19 38  1  0  0  0  0
 20 39  1  0  0  0  0
 20 40  1  0  0  0  0
 22 41  1  0  0  0  0
 25 42  1  0  0  0  0
 26 43  1  0  0  0  0
 26 44  1  0  0  0  0
 26 45  1  0  0  0  0
M  END
> <Name>
19

> <IC50[uM]>
0.015

$$$$
19
  -OEChem-05192314333D
 Structure written by MMmdl.
 45 48  0     0  0  0  0  0  0999 V2000
   -6.3863   12.3686  -12.0106 C   0  0  0  0  0  0  0  0  0  0  0  0
   -6.5303   11.8179  -10.7351 C   0  0  0  0  0  0  0  0  0  0  0  0
   -7.7274   10.5747  -13.0322 C   0  0  0  0  0  0  0  0  0  0  0  0
   -6.9939   11.7717  -13.1290 C   0  0  0  0  0  0  0  0  0  0  0  0
   -7.8233   10.0108  -11.7572 C   0  0  0  0  0  0  0  0  0  0  0  0
   -7.2504   10.6246  -10.6026 C   0  0  0  0  0  0  0  0  0  0  0  0
   -7.6148    9.7488   -9.5126 C   0  0  0  0  0  0  0  0  0  0  0  0
   -8.2772    8.7301   -9.9866 N   0  0  0  0  0  0  0  0  0  0  0  0
   -8.4133    8.8585  -11.2996 N   0  0  0  0  0  0  0  0  0  0  0  0
   -7.3367    9.8906   -8.0265 C   0  0  0  0  0  0  0  0  0  0  0  0
   -4.3739   13.6178  -11.5022 N   0  0  0  0  0  0  0  0  0  0  0  0
   -3.4056   14.7196  -11.5963 C   0  0  0  0  0  0  0  0  0  0  0  0
   -5.5407   13.6198  -12.1903 C   0  0  0  0  0  0  0  0  0  0  0  0
   -5.8948   14.5296  -12.9394 O   0  0  0  0  0  0  0  0  0  0  0  0
   -5.9610   10.4852   -7.7361 C   0  0  0  0  0  0  0  0  0  0  0  0
   -4.8098    9.7648   -8.0558 C   0  0  0  0  0  0  0  0  0  0  0  0
   -3.5520   10.3132   -7.8064 C   0  0  0  0  0  0  0  0  0  0  0  0
   -3.4430   11.5871   -7.2363 C   0  0  0  0  0  0  0  0  0  0  0  0
   -4.5944   12.3027   -6.9144 C   0  0  0  0  0  0  0  0  0  0  0  0
   -5.8504   11.7539   -7.1603 C   0  0  0  0  0  0  0  0  0  0  0  0
   -2.0991   12.1752   -6.9687 C   0  0  0  0  0  0  0  0  0  0  0  0
   -1.7663   13.4191   -6.4362 C   0  0  0  0  0  0  0  0  0  0  0  0
   -0.4291   13.4776   -6.3870 N   0  0  0  0  0  0  0  0  0  0  0  0
    0.1723   12.4029   -6.8190 N   0  0  0  0  0  0  0  0  0  0  0  0
   -0.8029   11.5945   -7.2007 C   0  0  0  0  0  0  0  0  0  0  0  0
    0.3904   14.5868   -5.9117 C   0  0  0  0  0  0  0  0  0  0  0  0
   -6.0966   12.3009   -9.8720 H   0  0  0  0  0  0  0  0  0  0  0  0
   -8.1900   10.1177  -13.8945 H   0  0  0  0  0  0  0  0  0  0  0  0
   -6.8945   12.2471  -14.0936 H   0  0  0  0  0  0  0  0  0  0  0  0
   -8.0374    9.6016   -7.2571 H   0  0  0  0  0  0  0  0  0  0  0  0
   -4.1641   12.8399  -10.9098 H   0  0  0  0  0  0  0  0  0  0  0  0
   -2.5387   14.5023  -10.9550 H   0  0  0  0  0  0  0  0  0  0  0  0
   -3.0724   14.8267  -12.6391 H   0  0  0  0  0  0  0  0  0  0  0  0
   -3.8811   15.6547  -11.2654 H   0  0  0  0  0  0  0  0  0  0  0  0
   -4.8927    8.7823   -8.4965 H   0  0  0  0  0  0  0  0  0  0  0  0
   -3.0309    9.6180   -7.1317 H   0  0  0  0  0  0  0  0  0  0  0  0
   -3.0255   10.3514   -8.7715 H   0  0  0  0  0  0  0  0  0  0  0  0
   -4.5126   13.2851   -6.4732 H   0  0  0  0  0  0  0  0  0  0  0  0
   -6.3761   12.4521   -7.8283 H   0  0  0  0  0  0  0  0  0  0  0  0
   -6.3718   11.7094   -6.1927 H   0  0  0  0  0  0  0  0  0  0  0  0
   -2.4554   14.1894   -6.1228 H   0  0  0  0  0  0  0  0  0  0  0  0
   -0.6455   10.6177   -7.6337 H   0  0  0  0  0  0  0  0  0  0  0  0
    1.4543   14.3214   -5.9997 H   0  0  0  0  0  0  0  0  0  0  0  0
    0.1843   15.4810   -6.5183 H   0  0  0  0  0  0  0  0  0  0  0  0
    0.1504   14.7949   -4.8586 H   0  0  0  0  0  0  0  0  0  0  0  0
  1  2  2  0  0  0  0
  1  4  1  0  0  0  0
  1 13  1  0  0  0  0
  2  6  1  0  0  0  0
  3  4  2  0  0  0  0
  3  5  1  0  0  0  0
  5  6  2  0  0  0  0
  5  9  1  0  0  0  0
  6  7  1  0  0  0  0
  7  8  1  0  0  0  0
  7 10  2  3  0  0  0
  8  9  2  0  0  0  0
 10 15  1  0  0  0  0
 11 12  1  0  0  0  0
 11 13  1  0  0  0  0
 13 14  2  0  0  0  0
 15 16  2  0  0  0  0
 15 20  1  0  0  0  0
 16 17  1  0  0  0  0
 17 18  1  0  0  0  0
 18 19  2  0  0  0  0
 18 21  1  0  0  0  0
 19 20  1  0  0  0  0
 21 22  2  0  0  0  0
 21 25  1  0  0  0  0
 22 23  1  0  0  0  0
 23 24  1  0  0  0  0
 23 26  1  0  0  0  0
 24 25  2  0  0  0  0
  2 27  1  0  0  0  0
  3 28  1  0  0  0  0
  4 29  1  0  0  0  0
 10 30  1  0  0  0  0
 11 31  1  0  0  0  0
 12 32  1  0  0  0  0
 12 33  1  0  0  0  0
 12 34  1  0  0  0  0
 16 35  1  0  0  0  0
 17 36  1  0  0  0  0
 17 37  1  0  0  0  0
 19 38  1  0  0  0  0
 20 39  1  0  0  0  0
 20 40  1  0  0  0  0
 22 41  1  0  0  0  0
 25 42  1  0  0  0  0
 26 43  1  0  0  0  0
 26 44  1  0  0  0  0
 26 45  1  0  0  0  0
M  END
> <Name>
19

> <IC50[uM]>
0.015

$$$$
19
  -OEChem-05192314333D
 Structure written by MMmdl.
 45 48  0     0  0  0  0  0  0999 V2000
   -6.3863   12.3686  -12.0106 C   0  0  0  0  0  0  0  0  0  0  0  0
   -6.5303   11.8179  -10.7351 C   0  0  0  0  0  0  0  0  0  0  0  0
   -7.7274   10.5747  -13.0322 C   0  0  0  0  0  0  0  0  0  0  0  0
   -6.9939   11.7717  -13.1290 C   0  0  0  0  0  0  0  0  0  0  0  0
   -7.8233   10.0108  -11.7572 C   0  0  0  0  0  0  0  0  0  0  0  0
   -7.2504   10.6246  -10.6026 C   0  0  0  0  0  0  0  0  0  0  0  0
   -7.6148    9.7488   -9.5126 C   0  0  0  0  0  0  0  0  0  0  0  0
   -8.2772    8.7301   -9.9866 N   0  0  0  0  0  0  0  0  0  0  0  0
   -8.4133    8.8585  -11.2996 N   0  0  0  0  0  0  0  0  0  0  0  0
   -7.3367    9.8906   -8.0265 C   0  0  0  0  0  0  0  0  0  0  0  0
   -4.3739   13.6178  -11.5022 N   0  0  0  0  0  0  0  0  0  0  0  0
   -3.4056   14.7196  -11.5963 C   0  0  0  0  0  0  0  0  0  0  0  0
   -5.5407   13.6198  -12.1903 C   0  0  0  0  0  0  0  0  0  0  0  0
   -5.8948   14.5296  -12.9394 O   0  0  0  0  0  0  0  0  0  0  0  0
   -5.9610   10.4852   -7.7361 C   0  0  0  0  0  0  0  0  0  0  0  0
   -4.8098    9.7648   -8.0558 C   0  0  0  0  0  0  0  0  0  0  0  0
   -3.5520   10.3132   -7.8064 C   0  0  0  0  0  0  0  0  0  0  0  0
   -3.4430   11.5871   -7.2363 C   0  0  0  0  0  0  0  0  0  0  0  0
   -4.5944   12.3027   -6.9144 C   0  0  0  0  0  0  0  0  0  0  0  0
   -5.8504   11.7539   -7.1603 C   0  0  0  0  0  0  0  0  0  0  0  0
   -2.0991   12.1752   -6.9687 C   0  0  0  0  0  0  0  0  0  0  0  0
   -1.7663   13.4191   -6.4362 C   0  0  0  0  0  0  0  0  0  0  0  0
   -0.4291   13.4776   -6.3870 N   0  0  0  0  0  0  0  0  0  0  0  0
    0.1723   12.4029   -6.8190 N   0  0  0  0  0  0  0  0  0  0  0  0
   -0.8029   11.5945   -7.2007 C   0  0  0  0  0  0  0  0  0  0  0  0
    0.3904   14.5868   -5.9117 C   0  0  0  0  0  0  0  0  0  0  0  0
   -6.0966   12.3009   -9.8720 H   0  0  0  0  0  0  0  0  0  0  0  0
   -8.1900   10.1177  -13.8945 H   0  0  0  0  0  0  0  0  0  0  0  0
   -6.8945   12.2471  -14.0936 H   0  0  0  0  0  0  0  0  0  0  0  0
   -8.0374    9.6016   -7.2571 H   0  0  0  0  0  0  0  0  0  0  0  0
   -4.1641   12.8399  -10.9098 H   0  0  0  0  0  0  0  0  0  0  0  0
   -2.5387   14.5023  -10.9550 H   0  0  0  0  0  0  0  0  0  0  0  0
   -3.0724   14.8267  -12.6391 H   0  0  0  0  0  0  0  0  0  0  0  0
   -3.8811   15.6547  -11.2654 H   0  0  0  0  0  0  0  0  0  0  0  0
   -4.8927    8.7823   -8.4965 H   0  0  0  0  0  0  0  0  0  0  0  0
   -2.6613    9.7546   -8.0533 H   0  0  0  0  0  0  0  0  0  0  0  0
   -4.5459   12.5124   -5.8357 H   0  0  0  0  0  0  0  0  0  0  0  0
   -4.5467   13.2483   -7.4743 H   0  0  0  0  0  0  0  0  0  0  0  0
   -6.3761   12.4521   -7.8283 H   0  0  0  0  0  0  0  0  0  0  0  0
   -6.3718   11.7094   -6.1927 H   0  0  0  0  0  0  0  0  0  0  0  0
   -2.4554   14.1894   -6.1228 H   0  0  0  0  0  0  0  0  0  0  0  0
   -0.6455   10.6177   -7.6337 H   0  0  0  0  0  0  0  0  0  0  0  0
    1.4543   14.3214   -5.9997 H   0  0  0  0  0  0  0  0  0  0  0  0
    0.1843   15.4810   -6.5183 H   0  0  0  0  0  0  0  0  0  0  0  0
    0.1504   14.7949   -4.8586 H   0  0  0  0  0  0  0  0  0  0  0  0
  1  2  2  0  0  0  0
  1  4  1  0  0  0  0
  1 13  1  0  0  0  0
  2  6  1  0  0  0  0
  3  4  2  0  0  0  0
  3  5  1  0  0  0  0
  5  6  2  0  0  0  0
  5  9  1  0  0  0  0
  6  7  1  0  0  0  0
  7  8  1  0  0  0  0
  7 10  2  3  0  0  0
  8  9  2  0  0  0  0
 10 15  1  0  0  0  0
 11 12  1  0  0  0  0
 11 13  1  0  0  0  0
 13 14  2  0  0  0  0
 15 16  2  0  0  0  0
 15 20  1  0  0  0  0
 16 17  1  0  0  0  0
 17 18  2  0  0  0  0
 18 19  1  0  0  0  0
 18 21  1  0  0  0  0
 19 20  1  0  0  0  0
 21 22  2  0  0  0  0
 21 25  1  0  0  0  0
 22 23  1  0  0  0  0
 23 24  1  0  0  0  0
 23 26  1  0  0  0  0
 24 25  2  0  0  0  0
  2 27  1  0  0  0  0
  3 28  1  0  0  0  0
  4 29  1  0  0  0  0
 10 30  1  0  0  0  0
 11 31  1  0  0  0  0
 12 32  1  0  0  0  0
 12 33  1  0  0  0  0
 12 34  1  0  0  0  0
 16 35  1  0  0  0  0
 17 36  1  0  0  0  0
 19 37  1  0  0  0  0
 19 38  1  0  0  0  0
 20 39  1  0  0  0  0
 20 40  1  0  0  0  0
 22 41  1  0  0  0  0
 25 42  1  0  0  0  0
 26 43  1  0  0  0  0
 26 44  1  0  0  0  0
 26 45  1  0  0  0  0
M  END
> <Name>
19

> <IC50[uM]>
0.015

$$$$
19
  -OEChem-05192314333D
 Structure written by MMmdl.
 45 48  0     1  0  0  0  0  0999 V2000
   -6.3863   12.3686  -12.0106 C   0  0  3  0  0  0  0  0  0  0  0  0
   -6.5303   11.8179  -10.7351 C   0  0  0  0  0  0  0  0  0  0  0  0
   -7.7274   10.5747  -13.0322 C   0  0  0  0  0  0  0  0  0  0  0  0
   -6.9939   11.7717  -13.1290 C   0  0  0  0  0  0  0  0  0  0  0  0
   -7.8233   10.0108  -11.7572 C   0  0  0  0  0  0  0  0  0  0  0  0
   -7.2504   10.6246  -10.6026 C   0  0  0  0  0  0  0  0  0  0  0  0
   -7.6148    9.7488   -9.5126 C   0  0  0  0  0  0  0  0  0  0  0  0
   -8.2772    8.7301   -9.9866 N   0  0  0  0  0  0  0  0  0  0  0  0
   -8.4133    8.8585  -11.2996 N   0  0  0  0  0  0  0  0  0  0  0  0
   -7.3367    9.8906   -8.0265 C   0  0  0  0  0  0  0  0  0  0  0  0
   -4.3739   13.6178  -11.5022 N   0  0  0  0  0  0  0  0  0  0  0  0
   -3.4056   14.7196  -11.5963 C   0  0  0  0  0  0  0  0  0  0  0  0
   -5.5407   13.6198  -12.1903 C   0  0  0  0  0  0  0  0  0  0  0  0
   -5.8948   14.5296  -12.9394 O   0  0  0  0  0  0  0  0  0  0  0  0
   -5.9610   10.4852   -7.7361 C   0  0  0  0  0  0  0  0  0  0  0  0
   -4.8098    9.7648   -8.0558 C   0  0  0  0  0  0  0  0  0  0  0  0
   -3.5520   10.3132   -7.8064 C   0  0  0  0  0  0  0  0  0  0  0  0
   -3.4430   11.5871   -7.2363 C   0  0  0  0  0  0  0  0  0  0  0  0
   -4.5944   12.3027   -6.9144 C   0  0  0  0  0  0  0  0  0  0  0  0
   -5.8504   11.7539   -7.1603 C   0  0  0  0  0  0  0  0  0  0  0  0
   -2.0991   12.1752   -6.9687 C   0  0  0  0  0  0  0  0  0  0  0  0
   -1.7663   13.4191   -6.4362 C   0  0  0  0  0  0  0  0  0  0  0  0
   -0.4291   13.4776   -6.3870 N   0  0  0  0  0  0  0  0  0  0  0  0
    0.1723   12.4029   -6.8190 N   0  0  0  0  0  0  0  0  0  0  0  0
   -0.8029   11.5945   -7.2007 C   0  0  0  0  0  0  0  0  0  0  0  0
    0.3904   14.5868   -5.9117 C   0  0  0  0  0  0  0  0  0  0  0  0
   -7.2799   12.9895  -11.8495 H   0  0  0  0  0  0  0  0  0  0  0  0
   -5.5187   11.6324  -10.3449 H   0  0  0  0  0  0  0  0  0  0  0  0
   -7.0319   12.5715  -10.1102 H   0  0  0  0  0  0  0  0  0  0  0  0
   -8.1900   10.1177  -13.8945 H   0  0  0  0  0  0  0  0  0  0  0  0
   -6.8945   12.2471  -14.0936 H   0  0  0  0  0  0  0  0  0  0  0  0
   -8.0374    9.6016   -7.2571 H   0  0  0  0  0  0  0  0  0  0  0  0
   -4.1641   12.8399  -10.9098 H   0  0  0  0  0  0  0  0  0  0  0  0
   -2.5387   14.5023  -10.9550 H   0  0  0  0  0  0  0  0  0  0  0  0
   -3.0724   14.8267  -12.6391 H   0  0  0  0  0  0  0  0  0  0  0  0
   -3.8811   15.6547  -11.2654 H   0  0  0  0  0  0  0  0  0  0  0  0
   -4.8927    8.7823   -8.4965 H   0  0  0  0  0  0  0  0  0  0  0  0
   -2.6613    9.7546   -8.0533 H   0  0  0  0  0  0  0  0  0  0  0  0
   -4.5126   13.2851   -6.4732 H   0  0  0  0  0  0  0  0  0  0  0  0
   -6.7407   12.3097   -6.9056 H   0  0  0  0  0  0  0  0  0  0  0  0
   -2.4554   14.1894   -6.1228 H   0  0  0  0  0  0  0  0  0  0  0  0
   -0.6455   10.6177   -7.6337 H   0  0  0  0  0  0  0  0  0  0  0  0
    1.4543   14.3214   -5.9997 H   0  0  0  0  0  0  0  0  0  0  0  0
    0.1843   15.4810   -6.5183 H   0  0  0  0  0  0  0  0  0  0  0  0
    0.1504   14.7949   -4.8586 H   0  0  0  0  0  0  0  0  0  0  0  0
  1  2  1  0  0  0  0
  1  4  1  0  0  0  0
  1 13  1  0  0  0  0
  2  6  1  0  0  0  0
  3  4  2  0  0  0  0
  3  5  1  0  0  0  0
  5  6  2  0  0  0  0
  5  9  1  0  0  0  0
  6  7  1  0  0  0  0
  7  8  1  0  0  0  0
  7 10  2  3  0  0  0
  8  9  2  0  0  0  0
 10 15  1  0  0  0  0
 11 12  1  0  0  0  0
 11 13  1  0  0  0  0
 13 14  2  0  0  0  0
 15 16  2  0  0  0  0
 15 20  1  0  0  0  0
 16 17  1  0  0  0  0
 17 18  2  0  0  0  0
 18 19  1  0  0  0  0
 18 21  1  0  0  0  0
 19 20  2  0  0  0  0
 21 22  2  0  0  0  0
 21 25  1  0  0  0  0
 22 23  1  0  0  0  0
 23 24  1  0  0  0  0
 23 26  1  0  0  0  0
 24 25  2  0  0  0  0
  1 27  1  0  0  0  0
  2 28  1  0  0  0  0
  2 29  1  0  0  0  0
  3 30  1  0  0  0  0
  4 31  1  0  0  0  0
 10 32  1  0  0  0  0
 11 33  1  0  0  0  0
 12 34  1  0  0  0  0
 12 35  1  0  0  0  0
 12 36  1  0  0  0  0
 16 37  1  0  0  0  0
 17 38  1  0  0  0  0
 19 39  1  0  0  0  0
 20 40  1  0  0  0  0
 22 41  1  0  0  0  0
 25 42  1  0  0  0  0
 26 43  1  0  0  0  0
 26 44  1  0  0  0  0
 26 45  1  0  0  0  0
M  END
> <Name>
19

> <IC50[uM]>
0.015

$$$$
19
  -OEChem-05192314333D
 Structure written by MMmdl.
 45 48  0     1  0  0  0  0  0999 V2000
   -6.3863   12.3686  -12.0106 C   0  0  0  0  0  0  0  0  0  0  0  0
   -6.5303   11.8179  -10.7351 C   0  0  0  0  0  0  0  0  0  0  0  0
   -7.7274   10.5747  -13.0322 C   0  0  0  0  0  0  0  0  0  0  0  0
   -6.9939   11.7717  -13.1290 C   0  0  0  0  0  0  0  0  0  0  0  0
   -7.8233   10.0108  -11.7572 C   0  0  0  0  0  0  0  0  0  0  0  0
   -7.2504   10.6246  -10.6026 C   0  0  3  0  0  0  0  0  0  0  0  0
   -7.6148    9.7488   -9.5126 C   0  0  0  0  0  0  0  0  0  0  0  0
   -8.2772    8.7301   -9.9866 N   0  0  0  0  0  0  0  0  0  0  0  0
   -8.4133    8.8585  -11.2996 N   0  0  0  0  0  0  0  0  0  0  0  0
   -7.3367    9.8906   -8.0265 C   0  0  0  0  0  0  0  0  0  0  0  0
   -4.3739   13.6178  -11.5022 N   0  0  0  0  0  0  0  0  0  0  0  0
   -3.4056   14.7196  -11.5963 C   0  0  0  0  0  0  0  0  0  0  0  0
   -5.5407   13.6198  -12.1903 C   0  0  0  0  0  0  0  0  0  0  0  0
   -5.8948   14.5296  -12.9394 O   0  0  0  0  0  0  0  0  0  0  0  0
   -5.9610   10.4852   -7.7361 C   0  0  0  0  0  0  0  0  0  0  0  0
   -4.8098    9.7648   -8.0558 C   0  0  0  0  0  0  0  0  0  0  0  0
   -3.5520   10.3132   -7.8064 C   0  0  0  0  0  0  0  0  0  0  0  0
   -3.4430   11.5871   -7.2363 C   0  0  0  0  0  0  0  0  0  0  0  0
   -4.5944   12.3027   -6.9144 C   0  0  0  0  0  0  0  0  0  0  0  0
   -5.8504   11.7539   -7.1603 C   0  0  0  0  0  0  0  0  0  0  0  0
   -2.0991   12.1752   -6.9687 C   0  0  0  0  0  0  0  0  0  0  0  0
   -1.7663   13.4191   -6.4362 C   0  0  0  0  0  0  0  0  0  0  0  0
   -0.4291   13.4776   -6.3870 N   0  0  0  0  0  0  0  0  0  0  0  0
    0.1723   12.4029   -6.8190 N   0  0  0  0  0  0  0  0  0  0  0  0
   -0.8029   11.5945   -7.2007 C   0  0  0  0  0  0  0  0  0  0  0  0
    0.3904   14.5868   -5.9117 C   0  0  0  0  0  0  0  0  0  0  0  0
   -5.5187   11.6324  -10.3449 H   0  0  0  0  0  0  0  0  0  0  0  0
   -7.0319   12.5715  -10.1102 H   0  0  0  0  0  0  0  0  0  0  0  0
   -8.1900   10.1177  -13.8945 H   0  0  0  0  0  0  0  0  0  0  0  0
   -6.8945   12.2471  -14.0936 H   0  0  0  0  0  0  0  0  0  0  0  0
   -6.3254   10.0493  -10.7557 H   0  0  0  0  0  0  0  0  0  0  0  0
   -8.0374    9.6016   -7.2571 H   0  0  0  0  0  0  0  0  0  0  0  0
   -4.1641   12.8399  -10.9098 H   0  0  0  0  0  0  0  0  0  0  0  0
   -2.5387   14.5023  -10.9550 H   0  0  0  0  0  0  0  0  0  0  0  0
   -3.0724   14.8267  -12.6391 H   0  0  0  0  0  0  0  0  0  0  0  0
   -3.8811   15.6547  -11.2654 H   0  0  0  0  0  0  0  0  0  0  0  0
   -4.8927    8.7823   -8.4965 H   0  0  0  0  0  0  0  0  0  0  0  0
   -2.6613    9.7546   -8.0533 H   0  0  0  0  0  0  0  0  0  0  0  0
   -4.5126   13.2851   -6.4732 H   0  0  0  0  0  0  0  0  0  0  0  0
   -6.7407   12.3097   -6.9056 H   0  0  0  0  0  0  0  0  0  0  0  0
   -2.4554   14.1894   -6.1228 H   0  0  0  0  0  0  0  0  0  0  0  0
   -0.6455   10.6177   -7.6337 H   0  0  0  0  0  0  0  0  0  0  0  0
    1.4543   14.3214   -5.9997 H   0  0  0  0  0  0  0  0  0  0  0  0
    0.1843   15.4810   -6.5183 H   0  0  0  0  0  0  0  0  0  0  0  0
    0.1504   14.7949   -4.8586 H   0  0  0  0  0  0  0  0  0  0  0  0
  1  2  1  0  0  0  0
  1  4  2  0  0  0  0
  1 13  1  0  0  0  0
  2  6  1  0  0  0  0
  3  4  1  0  0  0  0
  3  5  2  0  0  0  0
  5  6  1  0  0  0  0
  5  9  1  0  0  0  0
  6  7  1  0  0  0  0
  7  8  1  0  0  0  0
  7 10  2  3  0  0  0
  8  9  2  0  0  0  0
 10 15  1  0  0  0  0
 11 12  1  0  0  0  0
 11 13  1  0  0  0  0
 13 14  2  0  0  0  0
 15 16  2  0  0  0  0
 15 20  1  0  0  0  0
 16 17  1  0  0  0  0
 17 18  2  0  0  0  0
 18 19  1  0  0  0  0
 18 21  1  0  0  0  0
 19 20  2  0  0  0  0
 21 22  2  0  0  0  0
 21 25  1  0  0  0  0
 22 23  1  0  0  0  0
 23 24  1  0  0  0  0
 23 26  1  0  0  0  0
 24 25  2  0  0  0  0
  2 27  1  0  0  0  0
  2 28  1  0  0  0  0
  3 29  1  0  0  0  0
  4 30  1  0  0  0  0
  6 31  1  0  0  0  0
 10 32  1  0  0  0  0
 11 33  1  0  0  0  0
 12 34  1  0  0  0  0
 12 35  1  0  0  0  0
 12 36  1  0  0  0  0
 16 37  1  0  0  0  0
 17 38  1  0  0  0  0
 19 39  1  0  0  0  0
 20 40  1  0  0  0  0
 22 41  1  0  0  0  0
 25 42  1  0  0  0  0
 26 43  1  0  0  0  0
 26 44  1  0  0  0  0
 26 45  1  0  0  0  0
M  END
> <Name>
19

> <IC50[uM]>
0.015

$$$$
19
  -OEChem-05192314333D
 Structure written by MMmdl.
 45 48  0     0  0  0  0  0  0999 V2000
   -6.3863   12.3686  -12.0106 C   0  0  0  0  0  0  0  0  0  0  0  0
   -6.5303   11.8179  -10.7351 C   0  0  0  0  0  0  0  0  0  0  0  0
   -7.7274   10.5747  -13.0322 C   0  0  0  0  0  0  0  0  0  0  0  0
   -6.9939   11.7717  -13.1290 C   0  0  0  0  0  0  0  0  0  0  0  0
   -7.8233   10.0108  -11.7572 C   0  0  0  0  0  0  0  0  0  0  0  0
   -7.2504   10.6246  -10.6026 C   0  0  0  0  0  0  0  0  0  0  0  0
   -7.6148    9.7488   -9.5126 C   0  0  0  0  0  0  0  0  0  0  0  0
   -8.2772    8.7301   -9.9866 N   0  0  0  0  0  0  0  0  0  0  0  0
   -8.4133    8.8585  -11.2996 N   0  0  0  0  0  0  0  0  0  0  0  0
   -7.3367    9.8906   -8.0265 C   0  0  0  0  0  0  0  0  0  0  0  0
   -4.3739   13.6178  -11.5022 N   0  0  0  0  0  0  0  0  0  0  0  0
   -3.4056   14.7196  -11.5963 C   0  0  0  0  0  0  0  0  0  0  0  0
   -5.5407   13.6198  -12.1903 C   0  0  0  0  0  0  0  0  0  0  0  0
   -5.8948   14.5296  -12.9394 O   0  0  0  0  0  0  0  0  0  0  0  0
   -5.9610   10.4852   -7.7361 C   0  0  0  0  0  0  0  0  0  0  0  0
   -4.8098    9.7648   -8.0558 C   0  0  0  0  0  0  0  0  0  0  0  0
   -3.5520   10.3132   -7.8064 C   0  0  0  0  0  0  0  0  0  0  0  0
   -3.4430   11.5871   -7.2363 C   0  0  0  0  0  0  0  0  0  0  0  0
   -4.5944   12.3027   -6.9144 C   0  0  0  0  0  0  0  0  0  0  0  0
   -5.8504   11.7539   -7.1603 C   0  0  0  0  0  0  0  0  0  0  0  0
   -2.0991   12.1752   -6.9687 C   0  0  0  0  0  0  0  0  0  0  0  0
   -1.7663   13.4191   -6.4362 C   0  0  0  0  0  0  0  0  0  0  0  0
   -0.4291   13.4776   -6.3870 N   0  0  0  0  0  0  0  0  0  0  0  0
    0.1723   12.4029   -6.8190 N   0  0  0  0  0  0  0  0  0  0  0  0
   -0.8029   11.5945   -7.2007 C   0  0  0  0  0  0  0  0  0  0  0  0
    0.3904   14.5868   -5.9117 C   0  0  0  0  0  0  0  0  0  0  0  0
   -5.5187   11.6324  -10.3449 H   0  0  0  0  0  0  0  0  0  0  0  0
   -7.0319   12.5715  -10.1102 H   0  0  0  0  0  0  0  0  0  0  0  0
   -8.7487   10.7774  -13.3871 H   0  0  0  0  0  0  0  0  0  0  0  0
   -7.2503    9.8346  -13.6914 H   0  0  0  0  0  0  0  0  0  0  0  0
   -6.8945   12.2471  -14.0936 H   0  0  0  0  0  0  0  0  0  0  0  0
   -8.0374    9.6016   -7.2571 H   0  0  0  0  0  0  0  0  0  0  0  0
   -4.1641   12.8399  -10.9098 H   0  0  0  0  0  0  0  0  0  0  0  0
   -2.5387   14.5023  -10.9550 H   0  0  0  0  0  0  0  0  0  0  0  0
   -3.0724   14.8267  -12.6391 H   0  0  0  0  0  0  0  0  0  0  0  0
   -3.8811   15.6547  -11.2654 H   0  0  0  0  0  0  0  0  0  0  0  0
   -4.8927    8.7823   -8.4965 H   0  0  0  0  0  0  0  0  0  0  0  0
   -2.6613    9.7546   -8.0533 H   0  0  0  0  0  0  0  0  0  0  0  0
   -4.5126   13.2851   -6.4732 H   0  0  0  0  0  0  0  0  0  0  0  0
   -6.7407   12.3097   -6.9056 H   0  0  0  0  0  0  0  0  0  0  0  0
   -2.4554   14.1894   -6.1228 H   0  0  0  0  0  0  0  0  0  0  0  0
   -0.6455   10.6177   -7.6337 H   0  0  0  0  0  0  0  0  0  0  0  0
    1.4543   14.3214   -5.9997 H   0  0  0  0  0  0  0  0  0  0  0  0
    0.1843   15.4810   -6.5183 H   0  0  0  0  0  0  0  0  0  0  0  0
    0.1504   14.7949   -4.8586 H   0  0  0  0  0  0  0  0  0  0  0  0
  1  2  1  0  0  0  0
  1  4  2  0  0  0  0
  1 13  1  0  0  0  0
  2  6  1  0  0  0  0
  3  4  1  0  0  0  0
  3  5  1  0  0  0  0
  5  6  2  0  0  0  0
  5  9  1  0  0  0  0
  6  7  1  0  0  0  0
  7  8  1  0  0  0  0
  7 10  2  3  0  0  0
  8  9  2  0  0  0  0
 10 15  1  0  0  0  0
 11 12  1  0  0  0  0
 11 13  1  0  0  0  0
 13 14  2  0  0  0  0
 15 16  2  0  0  0  0
 15 20  1  0  0  0  0
 16 17  1  0  0  0  0
 17 18  2  0  0  0  0
 18 19  1  0  0  0  0
 18 21  1  0  0  0  0
 19 20  2  0  0  0  0
 21 22  2  0  0  0  0
 21 25  1  0  0  0  0
 22 23  1  0  0  0  0
 23 24  1  0  0  0  0
 23 26  1  0  0  0  0
 24 25  2  0  0  0  0
  2 27  1  0  0  0  0
  2 28  1  0  0  0  0
  3 29  1  0  0  0  0
  3 30  1  0  0  0  0
  4 31  1  0  0  0  0
 10 32  1  0  0  0  0
 11 33  1  0  0  0  0
 12 34  1  0  0  0  0
 12 35  1  0  0  0  0
 12 36  1  0  0  0  0
 16 37  1  0  0  0  0
 17 38  1  0  0  0  0
 19 39  1  0  0  0  0
 20 40  1  0  0  0  0
 22 41  1  0  0  0  0
 25 42  1  0  0  0  0
 26 43  1  0  0  0  0
 26 44  1  0  0  0  0
 26 45  1  0  0  0  0
M  END
> <Name>
19

> <IC50[uM]>
0.015

$$$$
19
  -OEChem-05192314333D
 Structure written by MMmdl.
 45 48  0     1  0  0  0  0  0999 V2000
   -6.3863   12.3686  -12.0106 C   0  0  0  0  0  0  0  0  0  0  0  0
   -6.5303   11.8179  -10.7351 C   0  0  0  0  0  0  0  0  0  0  0  0
   -7.7274   10.5747  -13.0322 C   0  0  0  0  0  0  0  0  0  0  0  0
   -6.9939   11.7717  -13.1290 C   0  0  0  0  0  0  0  0  0  0  0  0
   -7.8233   10.0108  -11.7572 C   0  0  3  0  0  0  0  0  0  0  0  0
   -7.2504   10.6246  -10.6026 C   0  0  0  0  0  0  0  0  0  0  0  0
   -7.6148    9.7488   -9.5126 C   0  0  0  0  0  0  0  0  0  0  0  0
   -8.2772    8.7301   -9.9866 N   0  0  0  0  0  0  0  0  0  0  0  0
   -8.4133    8.8585  -11.2996 N   0  0  0  0  0  0  0  0  0  0  0  0
   -7.3367    9.8906   -8.0265 C   0  0  0  0  0  0  0  0  0  0  0  0
   -4.3739   13.6178  -11.5022 N   0  0  0  0  0  0  0  0  0  0  0  0
   -3.4056   14.7196  -11.5963 C   0  0  0  0  0  0  0  0  0  0  0  0
   -5.5407   13.6198  -12.1903 C   0  0  0  0  0  0  0  0  0  0  0  0
   -5.8948   14.5296  -12.9394 O   0  0  0  0  0  0  0  0  0  0  0  0
   -5.9610   10.4852   -7.7361 C   0  0  0  0  0  0  0  0  0  0  0  0
   -4.8098    9.7648   -8.0558 C   0  0  0  0  0  0  0  0  0  0  0  0
   -3.5520   10.3132   -7.8064 C   0  0  0  0  0  0  0  0  0  0  0  0
   -3.4430   11.5871   -7.2363 C   0  0  0  0  0  0  0  0  0  0  0  0
   -4.5944   12.3027   -6.9144 C   0  0  0  0  0  0  0  0  0  0  0  0
   -5.8504   11.7539   -7.1603 C   0  0  0  0  0  0  0  0  0  0  0  0
   -2.0991   12.1752   -6.9687 C   0  0  0  0  0  0  0  0  0  0  0  0
   -1.7663   13.4191   -6.4362 C   0  0  0  0  0  0  0  0  0  0  0  0
   -0.4291   13.4776   -6.3870 N   0  0  0  0  0  0  0  0  0  0  0  0
    0.1723   12.4029   -6.8190 N   0  0  0  0  0  0  0  0  0  0  0  0
   -0.8029   11.5945   -7.2007 C   0  0  0  0  0  0  0  0  0  0  0  0
    0.3904   14.5868   -5.9117 C   0  0  0  0  0  0  0  0  0  0  0  0
   -6.0966   12.3009   -9.8720 H   0  0  0  0  0  0  0  0  0  0  0  0
   -8.1900   10.1177  -13.8945 H   0  0  0  0  0  0  0  0  0  0  0  0
   -6.8945   12.2471  -14.0936 H   0  0  0  0  0  0  0  0  0  0  0  0
   -8.7607   10.5598  -11.5844 H   0  0  0  0  0  0  0  0  0  0  0  0
   -8.1028   10.5460   -7.5866 H   0  0  0  0  0  0  0  0  0  0  0  0
   -7.3947    8.8954   -7.5616 H   0  0  0  0  0  0  0  0  0  0  0  0
   -4.1641   12.8399  -10.9098 H   0  0  0  0  0  0  0  0  0  0  0  0
   -2.5387   14.5023  -10.9550 H   0  0  0  0  0  0  0  0  0  0  0  0
   -3.0724   14.8267  -12.6391 H   0  0  0  0  0  0  0  0  0  0  0  0
   -3.8811   15.6547  -11.2654 H   0  0  0  0  0  0  0  0  0  0  0  0
   -4.8927    8.7823   -8.4965 H   0  0  0  0  0  0  0  0  0  0  0  0
   -2.6613    9.7546   -8.0533 H   0  0  0  0  0  0  0  0  0  0  0  0
   -4.5126   13.2851   -6.4732 H   0  0  0  0  0  0  0  0  0  0  0  0
   -6.7407   12.3097   -6.9056 H   0  0  0  0  0  0  0  0  0  0  0  0
   -2.4554   14.1894   -6.1228 H   0  0  0  0  0  0  0  0  0  0  0  0
   -0.6455   10.6177   -7.6337 H   0  0  0  0  0  0  0  0  0  0  0  0
    1.4543   14.3214   -5.9997 H   0  0  0  0  0  0  0  0  0  0  0  0
    0.1843   15.4810   -6.5183 H   0  0  0  0  0  0  0  0  0  0  0  0
    0.1504   14.7949   -4.8586 H   0  0  0  0  0  0  0  0  0  0  0  0
  1  2  2  0  0  0  0
  1  4  1  0  0  0  0
  1 13  1  0  0  0  0
  2  6  1  0  0  0  0
  3  4  2  0  0  0  0
  3  5  1  0  0  0  0
  5  6  1  0  0  0  0
  5  9  1  0  0  0  0
  6  7  2  0  0  0  0
  7  8  1  0  0  0  0
  7 10  1  0  0  0  0
  8  9  2  0  0  0  0
 10 15  1  0  0  0  0
 11 12  1  0  0  0  0
 11 13  1  0  0  0  0
 13 14  2  0  0  0  0
 15 16  2  0  0  0  0
 15 20  1  0  0  0  0
 16 17  1  0  0  0  0
 17 18  2  0  0  0  0
 18 19  1  0  0  0  0
 18 21  1  0  0  0  0
 19 20  2  0  0  0  0
 21 22  2  0  0  0  0
 21 25  1  0  0  0  0
 22 23  1  0  0  0  0
 23 24  1  0  0  0  0
 23 26  1  0  0  0  0
 24 25  2  0  0  0  0
  2 27  1  0  0  0  0
  3 28  1  0  0  0  0
  4 29  1  0  0  0  0
  5 30  1  0  0  0  0
 10 31  1  0  0  0  0
 10 32  1  0  0  0  0
 11 33  1  0  0  0  0
 12 34  1  0  0  0  0
 12 35  1  0  0  0  0
 12 36  1  0  0  0  0
 16 37  1  0  0  0  0
 17 38  1  0  0  0  0
 19 39  1  0  0  0  0
 20 40  1  0  0  0  0
 22 41  1  0  0  0  0
 25 42  1  0  0  0  0
 26 43  1  0  0  0  0
 26 44  1  0  0  0  0
 26 45  1  0  0  0  0
M  END
> <Name>
19

> <IC50[uM]>
0.015

$$$$
19
  -OEChem-05192314333D
 Structure written by MMmdl.
 45 48  0     0  0  0  0  0  0999 V2000
   -6.3863   12.3686  -12.0106 C   0  0  0  0  0  0  0  0  0  0  0  0
   -6.5303   11.8179  -10.7351 C   0  0  0  0  0  0  0  0  0  0  0  0
   -7.7274   10.5747  -13.0322 C   0  0  0  0  0  0  0  0  0  0  0  0
   -6.9939   11.7717  -13.1290 C   0  0  0  0  0  0  0  0  0  0  0  0
   -7.8233   10.0108  -11.7572 C   0  0  0  0  0  0  0  0  0  0  0  0
   -7.2504   10.6246  -10.6026 C   0  0  0  0  0  0  0  0  0  0  0  0
   -7.6148    9.7488   -9.5126 C   0  0  0  0  0  0  0  0  0  0  0  0
   -8.2772    8.7301   -9.9866 N   0  0  0  0  0  0  0  0  0  0  0  0
   -8.4133    8.8585  -11.2996 N   0  0  0  0  0  0  0  0  0  0  0  0
   -7.3367    9.8906   -8.0265 C   0  0  0  0  0  0  0  0  0  0  0  0
   -4.3739   13.6178  -11.5022 N   0  0  0  0  0  0  0  0  0  0  0  0
   -3.4056   14.7196  -11.5963 C   0  0  0  0  0  0  0  0  0  0  0  0
   -5.5407   13.6198  -12.1903 C   0  0  0  0  0  0  0  0  0  0  0  0
   -5.8948   14.5296  -12.9394 O   0  0  0  0  0  0  0  0  0  0  0  0
   -5.9610   10.4852   -7.7361 C   0  0  0  0  0  0  0  0  0  0  0  0
   -4.8098    9.7648   -8.0558 C   0  0  0  0  0  0  0  0  0  0  0  0
   -3.5520   10.3132   -7.8064 C   0  0  0  0  0  0  0  0  0  0  0  0
   -3.4430   11.5871   -7.2363 C   0  0  0  0  0  0  0  0  0  0  0  0
   -4.5944   12.3027   -6.9144 C   0  0  0  0  0  0  0  0  0  0  0  0
   -5.8504   11.7539   -7.1603 C   0  0  0  0  0  0  0  0  0  0  0  0
   -2.0991   12.1752   -6.9687 C   0  0  0  0  0  0  0  0  0  0  0  0
   -1.7663   13.4191   -6.4362 C   0  0  0  0  0  0  0  0  0  0  0  0
   -0.4291   13.4776   -6.3870 N   0  0  0  0  0  0  0  0  0  0  0  0
    0.1723   12.4029   -6.8190 N   0  0  0  0  0  0  0  0  0  0  0  0
   -0.8029   11.5945   -7.2007 C   0  0  0  0  0  0  0  0  0  0  0  0
    0.3904   14.5868   -5.9117 C   0  0  0  0  0  0  0  0  0  0  0  0
   -6.0966   12.3009   -9.8720 H   0  0  0  0  0  0  0  0  0  0  0  0
   -8.1900   10.1177  -13.8945 H   0  0  0  0  0  0  0  0  0  0  0  0
   -7.6841   12.5226  -13.5411 H   0  0  0  0  0  0  0  0  0  0  0  0
   -6.1868   11.5800  -13.8514 H   0  0  0  0  0  0  0  0  0  0  0  0
   -8.1028   10.5460   -7.5866 H   0  0  0  0  0  0  0  0  0  0  0  0
   -7.3947    8.8954   -7.5616 H   0  0  0  0  0  0  0  0  0  0  0  0
   -4.1641   12.8399  -10.9098 H   0  0  0  0  0  0  0  0  0  0  0  0
   -2.5387   14.5023  -10.9550 H   0  0  0  0  0  0  0  0  0  0  0  0
   -3.0724   14.8267  -12.6391 H   0  0  0  0  0  0  0  0  0  0  0  0
   -3.8811   15.6547  -11.2654 H   0  0  0  0  0  0  0  0  0  0  0  0
   -4.8927    8.7823   -8.4965 H   0  0  0  0  0  0  0  0  0  0  0  0
   -2.6613    9.7546   -8.0533 H   0  0  0  0  0  0  0  0  0  0  0  0
   -4.5126   13.2851   -6.4732 H   0  0  0  0  0  0  0  0  0  0  0  0
   -6.7407   12.3097   -6.9056 H   0  0  0  0  0  0  0  0  0  0  0  0
   -2.4554   14.1894   -6.1228 H   0  0  0  0  0  0  0  0  0  0  0  0
   -0.6455   10.6177   -7.6337 H   0  0  0  0  0  0  0  0  0  0  0  0
    1.4543   14.3214   -5.9997 H   0  0  0  0  0  0  0  0  0  0  0  0
    0.1843   15.4810   -6.5183 H   0  0  0  0  0  0  0  0  0  0  0  0
    0.1504   14.7949   -4.8586 H   0  0  0  0  0  0  0  0  0  0  0  0
  1  2  2  0  0  0  0
  1  4  1  0  0  0  0
  1 13  1  0  0  0  0
  2  6  1  0  0  0  0
  3  4  1  0  0  0  0
  3  5  2  0  0  0  0
  5  6  1  0  0  0  0
  5  9  1  0  0  0  0
  6  7  2  0  0  0  0
  7  8  1  0  0  0  0
  7 10  1  0  0  0  0
  8  9  2  0  0  0  0
 10 15  1  0  0  0  0
 11 12  1  0  0  0  0
 11 13  1  0  0  0  0
 13 14  2  0  0  0  0
 15 16  2  0  0  0  0
 15 20  1  0  0  0  0
 16 17  1  0  0  0  0
 17 18  2  0  0  0  0
 18 19  1  0  0  0  0
 18 21  1  0  0  0  0
 19 20  2  0  0  0  0
 21 22  2  0  0  0  0
 21 25  1  0  0  0  0
 22 23  1  0  0  0  0
 23 24  1  0  0  0  0
 23 26  1  0  0  0  0
 24 25  2  0  0  0  0
  2 27  1  0  0  0  0
  3 28  1  0  0  0  0
  4 29  1  0  0  0  0
  4 30  1  0  0  0  0
 10 31  1  0  0  0  0
 10 32  1  0  0  0  0
 11 33  1  0  0  0  0
 12 34  1  0  0  0  0
 12 35  1  0  0  0  0
 12 36  1  0  0  0  0
 16 37  1  0  0  0  0
 17 38  1  0  0  0  0
 19 39  1  0  0  0  0
 20 40  1  0  0  0  0
 22 41  1  0  0  0  0
 25 42  1  0  0  0  0
 26 43  1  0  0  0  0
 26 44  1  0  0  0  0
 26 45  1  0  0  0  0
M  END
> <Name>
19

> <IC50[uM]>
0.015

$$$$
19
  -OEChem-05192314333D
 Structure written by MMmdl.
 45 48  0     0  0  0  0  0  0999 V2000
   -6.3863   12.3686  -12.0106 C   0  0  0  0  0  0  0  0  0  0  0  0
   -6.5303   11.8179  -10.7351 C   0  0  0  0  0  0  0  0  0  0  0  0
   -7.7274   10.5747  -13.0322 C   0  0  0  0  0  0  0  0  0  0  0  0
   -6.9939   11.7717  -13.1290 C   0  0  0  0  0  0  0  0  0  0  0  0
   -7.8233   10.0108  -11.7572 C   0  0  0  0  0  0  0  0  0  0  0  0
   -7.2504   10.6246  -10.6026 C   0  0  0  0  0  0  0  0  0  0  0  0
   -7.6148    9.7488   -9.5126 C   0  0  0  0  0  0  0  0  0  0  0  0
   -8.2772    8.7301   -9.9866 N   0  0  0  0  0  0  0  0  0  0  0  0
   -8.4133    8.8585  -11.2996 N   0  0  0  0  0  0  0  0  0  0  0  0
   -7.3367    9.8906   -8.0265 C   0  0  0  0  0  0  0  0  0  0  0  0
   -4.3739   13.6178  -11.5022 N   0  0  0  0  0  0  0  0  0  0  0  0
   -3.4056   14.7196  -11.5963 C   0  0  0  0  0  0  0  0  0  0  0  0
   -5.5407   13.6198  -12.1903 C   0  0  0  0  0  0  0  0  0  0  0  0
   -5.8948   14.5296  -12.9394 O   0  0  0  0  0  0  0  0  0  0  0  0
   -5.9610   10.4852   -7.7361 C   0  0  0  0  0  0  0  0  0  0  0  0
   -4.8098    9.7648   -8.0558 C   0  0  0  0  0  0  0  0  0  0  0  0
   -3.5520   10.3132   -7.8064 C   0  0  0  0  0  0  0  0  0  0  0  0
   -3.4430   11.5871   -7.2363 C   0  0  0  0  0  0  0  0  0  0  0  0
   -4.5944   12.3027   -6.9144 C   0  0  0  0  0  0  0  0  0  0  0  0
   -5.8504   11.7539   -7.1603 C   0  0  0  0  0  0  0  0  0  0  0  0
   -2.0991   12.1752   -6.9687 C   0  0  0  0  0  0  0  0  0  0  0  0
   -1.7663   13.4191   -6.4362 C   0  0  0  0  0  0  0  0  0  0  0  0
   -0.4291   13.4776   -6.3870 N   0  0  0  0  0  0  0  0  0  0  0  0
    0.1723   12.4029   -6.8190 N   0  0  0  0  0  0  0  0  0  0  0  0
   -0.8029   11.5945   -7.2007 C   0  0  0  0  0  0  0  0  0  0  0  0
    0.3904   14.5868   -5.9117 C   0  0  0  0  0  0  0  0  0  0  0  0
   -5.5187   11.6324  -10.3449 H   0  0  0  0  0  0  0  0  0  0  0  0
   -7.0319   12.5715  -10.1102 H   0  0  0  0  0  0  0  0  0  0  0  0
   -8.1900   10.1177  -13.8945 H   0  0  0  0  0  0  0  0  0  0  0  0
   -6.8945   12.2471  -14.0936 H   0  0  0  0  0  0  0  0  0  0  0  0
   -8.1028   10.5460   -7.5866 H   0  0  0  0  0  0  0  0  0  0  0  0
   -7.3947    8.8954   -7.5616 H   0  0  0  0  0  0  0  0  0  0  0  0
   -4.1641   12.8399  -10.9098 H   0  0  0  0  0  0  0  0  0  0  0  0
   -2.5387   14.5023  -10.9550 H   0  0  0  0  0  0  0  0  0  0  0  0
   -3.0724   14.8267  -12.6391 H   0  0  0  0  0  0  0  0  0  0  0  0
   -3.8811   15.6547  -11.2654 H   0  0  0  0  0  0  0  0  0  0  0  0
   -4.8927    8.7823   -8.4965 H   0  0  0  0  0  0  0  0  0  0  0  0
   -2.6613    9.7546   -8.0533 H   0  0  0  0  0  0  0  0  0  0  0  0
   -4.5126   13.2851   -6.4732 H   0  0  0  0  0  0  0  0  0  0  0  0
   -6.7407   12.3097   -6.9056 H   0  0  0  0  0  0  0  0  0  0  0  0
   -2.4554   14.1894   -6.1228 H   0  0  0  0  0  0  0  0  0  0  0  0
   -0.6455   10.6177   -7.6337 H   0  0  0  0  0  0  0  0  0  0  0  0
    1.4543   14.3214   -5.9997 H   0  0  0  0  0  0  0  0  0  0  0  0
    0.1843   15.4810   -6.5183 H   0  0  0  0  0  0  0  0  0  0  0  0
    0.1504   14.7949   -4.8586 H   0  0  0  0  0  0  0  0  0  0  0  0
  1  2  1  0  0  0  0
  1  4  2  0  0  0  0
  1 13  1  0  0  0  0
  2  6  1  0  0  0  0
  3  4  1  0  0  0  0
  3  5  2  0  0  0  0
  5  6  1  0  0  0  0
  5  9  1  0  0  0  0
  6  7  2  0  0  0  0
  7  8  1  0  0  0  0
  7 10  1  0  0  0  0
  8  9  2  0  0  0  0
 10 15  1  0  0  0  0
 11 12  1  0  0  0  0
 11 13  1  0  0  0  0
 13 14  2  0  0  0  0
 15 16  2  0  0  0  0
 15 20  1  0  0  0  0
 16 17  1  0  0  0  0
 17 18  2  0  0  0  0
 18 19  1  0  0  0  0
 18 21  1  0  0  0  0
 19 20  2  0  0  0  0
 21 22  2  0  0  0  0
 21 25  1  0  0  0  0
 22 23  1  0  0  0  0
 23 24  1  0  0  0  0
 23 26  1  0  0  0  0
 24 25  2  0  0  0  0
  2 27  1  0  0  0  0
  2 28  1  0  0  0  0
  3 29  1  0  0  0  0
  4 30  1  0  0  0  0
 10 31  1  0  0  0  0
 10 32  1  0  0  0  0
 11 33  1  0  0  0  0
 12 34  1  0  0  0  0
 12 35  1  0  0  0  0
 12 36  1  0  0  0  0
 16 37  1  0  0  0  0
 17 38  1  0  0  0  0
 19 39  1  0  0  0  0
 20 40  1  0  0  0  0
 22 41  1  0  0  0  0
 25 42  1  0  0  0  0
 26 43  1  0  0  0  0
 26 44  1  0  0  0  0
 26 45  1  0  0  0  0
M  END
> <Name>
19

> <IC50[uM]>
0.015

$$$$
19
  -OEChem-05192314333D
 Structure written by MMmdl.
 45 48  0     1  0  0  0  0  0999 V2000
   -6.3863   12.3686  -12.0106 C   0  0  0  0  0  0  0  0  0  0  0  0
   -6.5303   11.8179  -10.7351 C   0  0  0  0  0  0  0  0  0  0  0  0
   -7.7274   10.5747  -13.0322 C   0  0  0  0  0  0  0  0  0  0  0  0
   -6.9939   11.7717  -13.1290 C   0  0  0  0  0  0  0  0  0  0  0  0
   -7.8233   10.0108  -11.7572 C   0  0  0  0  0  0  0  0  0  0  0  0
   -7.2504   10.6246  -10.6026 C   0  0  3  0  0  0  0  0  0  0  0  0
   -7.6148    9.7488   -9.5126 C   0  0  0  0  0  0  0  0  0  0  0  0
   -8.2772    8.7301   -9.9866 N   0  0  0  0  0  0  0  0  0  0  0  0
   -8.4133    8.8585  -11.2996 N   0  0  0  0  0  0  0  0  0  0  0  0
   -7.3367    9.8906   -8.0265 C   0  0  0  0  0  0  0  0  0  0  0  0
   -4.3739   13.6178  -11.5022 N   0  0  0  0  0  0  0  0  0  0  0  0
   -3.4056   14.7196  -11.5963 C   0  0  0  0  0  0  0  0  0  0  0  0
   -5.5407   13.6198  -12.1903 C   0  0  0  0  0  0  0  0  0  0  0  0
   -5.8948   14.5296  -12.9394 O   0  0  0  0  0  0  0  0  0  0  0  0
   -5.9610   10.4852   -7.7361 C   0  0  0  0  0  0  0  0  0  0  0  0
   -4.8098    9.7648   -8.0558 C   0  0  0  0  0  0  0  0  0  0  0  0
   -3.5520   10.3132   -7.8064 C   0  0  0  0  0  0  0  0  0  0  0  0
   -3.4430   11.5871   -7.2363 C   0  0  0  0  0  0  0  0  0  0  0  0
   -4.5944   12.3027   -6.9144 C   0  0  0  0  0  0  0  0  0  0  0  0
   -5.8504   11.7539   -7.1603 C   0  0  0  0  0  0  0  0  0  0  0  0
   -2.0991   12.1752   -6.9687 C   0  0  0  0  0  0  0  0  0  0  0  0
   -1.7663   13.4191   -6.4362 C   0  0  0  0  0  0  0  0  0  0  0  0
   -0.4291   13.4776   -6.3870 N   0  0  0  0  0  0  0  0  0  0  0  0
    0.1723   12.4029   -6.8190 N   0  0  0  0  0  0  0  0  0  0  0  0
   -0.8029   11.5945   -7.2007 C   0  0  0  0  0  0  0  0  0  0  0  0
    0.3904   14.5868   -5.9117 C   0  0  0  0  0  0  0  0  0  0  0  0
   -6.0966   12.3009   -9.8720 H   0  0  0  0  0  0  0  0  0  0  0  0
   -8.1900   10.1177  -13.8945 H   0  0  0  0  0  0  0  0  0  0  0  0
   -6.8945   12.2471  -14.0936 H   0  0  0  0  0  0  0  0  0  0  0  0
   -6.3254   10.0493  -10.7557 H   0  0  0  0  0  0  0  0  0  0  0  0
   -8.6289    7.9682   -9.4428 H   0  0  0  0  0  0  0  0  0  0  0  0
   -8.0374    9.6016   -7.2571 H   0  0  0  0  0  0  0  0  0  0  0  0
   -4.1641   12.8399  -10.9098 H   0  0  0  0  0  0  0  0  0  0  0  0
   -2.5387   14.5023  -10.9550 H   0  0  0  0  0  0  0  0  0  0  0  0
   -3.0724   14.8267  -12.6391 H   0  0  0  0  0  0  0  0  0  0  0  0
   -3.8811   15.6547  -11.2654 H   0  0  0  0  0  0  0  0  0  0  0  0
   -4.8927    8.7823   -8.4965 H   0  0  0  0  0  0  0  0  0  0  0  0
   -2.6613    9.7546   -8.0533 H   0  0  0  0  0  0  0  0  0  0  0  0
   -4.5126   13.2851   -6.4732 H   0  0  0  0  0  0  0  0  0  0  0  0
   -6.7407   12.3097   -6.9056 H   0  0  0  0  0  0  0  0  0  0  0  0
   -2.4554   14.1894   -6.1228 H   0  0  0  0  0  0  0  0  0  0  0  0
   -0.6455   10.6177   -7.6337 H   0  0  0  0  0  0  0  0  0  0  0  0
    1.4543   14.3214   -5.9997 H   0  0  0  0  0  0  0  0  0  0  0  0
    0.1843   15.4810   -6.5183 H   0  0  0  0  0  0  0  0  0  0  0  0
    0.1504   14.7949   -4.8586 H   0  0  0  0  0  0  0  0  0  0  0  0
  1  2  2  0  0  0  0
  1  4  1  0  0  0  0
  1 13  1  0  0  0  0
  2  6  1  0  0  0  0
  3  4  2  0  0  0  0
  3  5  1  0  0  0  0
  5  6  1  0  0  0  0
  5  9  2  0  0  0  0
  6  7  1  0  0  0  0
  7  8  1  0  0  0  0
  7 10  2  3  0  0  0
  8  9  1  0  0  0  0
 10 15  1  0  0  0  0
 11 12  1  0  0  0  0
 11 13  1  0  0  0  0
 13 14  2  0  0  0  0
 15 16  2  0  0  0  0
 15 20  1  0  0  0  0
 16 17  1  0  0  0  0
 17 18  2  0  0  0  0
 18 19  1  0  0  0  0
 18 21  1  0  0  0  0
 19 20  2  0  0  0  0
 21 22  2  0  0  0  0
 21 25  1  0  0  0  0
 22 23  1  0  0  0  0
 23 24  1  0  0  0  0
 23 26  1  0  0  0  0
 24 25  2  0  0  0  0
  2 27  1  0  0  0  0
  3 28  1  0  0  0  0
  4 29  1  0  0  0  0
  6 30  1  0  0  0  0
  8 31  1  0  0  0  0
 10 32  1  0  0  0  0
 11 33  1  0  0  0  0
 12 34  1  0  0  0  0
 12 35  1  0  0  0  0
 12 36  1  0  0  0  0
 16 37  1  0  0  0  0
 17 38  1  0  0  0  0
 19 39  1  0  0  0  0
 20 40  1  0  0  0  0
 22 41  1  0  0  0  0
 25 42  1  0  0  0  0
 26 43  1  0  0  0  0
 26 44  1  0  0  0  0
 26 45  1  0  0  0  0
M  END
> <Name>
19

> <IC50[uM]>
0.015

$$$$
19
  -OEChem-05192314333D
 Structure written by MMmdl.
 45 48  0     0  0  0  0  0  0999 V2000
   -6.3863   12.3686  -12.0106 C   0  0  0  0  0  0  0  0  0  0  0  0
   -6.5303   11.8179  -10.7351 C   0  0  0  0  0  0  0  0  0  0  0  0
   -7.7274   10.5747  -13.0322 C   0  0  0  0  0  0  0  0  0  0  0  0
   -6.9939   11.7717  -13.1290 C   0  0  0  0  0  0  0  0  0  0  0  0
   -7.8233   10.0108  -11.7572 C   0  0  0  0  0  0  0  0  0  0  0  0
   -7.2504   10.6246  -10.6026 C   0  0  0  0  0  0  0  0  0  0  0  0
   -7.6148    9.7488   -9.5126 C   0  0  0  0  0  0  0  0  0  0  0  0
   -8.2772    8.7301   -9.9866 N   0  0  0  0  0  0  0  0  0  0  0  0
   -8.4133    8.8585  -11.2996 N   0  0  0  0  0  0  0  0  0  0  0  0
   -7.3367    9.8906   -8.0265 C   0  0  0  0  0  0  0  0  0  0  0  0
   -4.3739   13.6178  -11.5022 N   0  0  0  0  0  0  0  0  0  0  0  0
   -3.4056   14.7196  -11.5963 C   0  0  0  0  0  0  0  0  0  0  0  0
   -5.5407   13.6198  -12.1903 C   0  0  0  0  0  0  0  0  0  0  0  0
   -5.8948   14.5296  -12.9394 O   0  0  0  0  0  0  0  0  0  0  0  0
   -5.9610   10.4852   -7.7361 C   0  0  0  0  0  0  0  0  0  0  0  0
   -4.8098    9.7648   -8.0558 C   0  0  0  0  0  0  0  0  0  0  0  0
   -3.5520   10.3132   -7.8064 C   0  0  0  0  0  0  0  0  0  0  0  0
   -3.4430   11.5871   -7.2363 C   0  0  0  0  0  0  0  0  0  0  0  0
   -4.5944   12.3027   -6.9144 C   0  0  0  0  0  0  0  0  0  0  0  0
   -5.8504   11.7539   -7.1603 C   0  0  0  0  0  0  0  0  0  0  0  0
   -2.0991   12.1752   -6.9687 C   0  0  0  0  0  0  0  0  0  0  0  0
   -1.7663   13.4191   -6.4362 C   0  0  0  0  0  0  0  0  0  0  0  0
   -0.4291   13.4776   -6.3870 N   0  0  0  0  0  0  0  0  0  0  0  0
    0.1723   12.4029   -6.8190 N   0  0  0  0  0  0  0  0  0  0  0  0
   -0.8029   11.5945   -7.2007 C   0  0  0  0  0  0  0  0  0  0  0  0
    0.3904   14.5868   -5.9117 C   0  0  0  0  0  0  0  0  0  0  0  0
   -6.0966   12.3009   -9.8720 H   0  0  0  0  0  0  0  0  0  0  0  0
   -8.1900   10.1177  -13.8945 H   0  0  0  0  0  0  0  0  0  0  0  0
   -6.8945   12.2471  -14.0936 H   0  0  0  0  0  0  0  0  0  0  0  0
   -8.0374    9.6016   -7.2571 H   0  0  0  0  0  0  0  0  0  0  0  0
   -2.5387   14.5023  -10.9550 H   0  0  0  0  0  0  0  0  0  0  0  0
   -3.0724   14.8267  -12.6391 H   0  0  0  0  0  0  0  0  0  0  0  0
   -3.8811   15.6547  -11.2654 H   0  0  0  0  0  0  0  0  0  0  0  0
   -5.2461   15.2234  -12.9243 H   0  0  0  0  0  0  0  0  0  0  0  0
   -5.9721   10.0288   -6.7353 H   0  0  0  0  0  0  0  0  0  0  0  0
   -4.8927    8.7823   -8.4965 H   0  0  0  0  0  0  0  0  0  0  0  0
   -2.6613    9.7546   -8.0533 H   0  0  0  0  0  0  0  0  0  0  0  0
   -3.4418   12.0376   -8.2398 H   0  0  0  0  0  0  0  0  0  0  0  0
   -4.5126   13.2851   -6.4732 H   0  0  0  0  0  0  0  0  0  0  0  0
   -6.7407   12.3097   -6.9056 H   0  0  0  0  0  0  0  0  0  0  0  0
   -2.4554   14.1894   -6.1228 H   0  0  0  0  0  0  0  0  0  0  0  0
   -0.6455   10.6177   -7.6337 H   0  0  0  0  0  0  0  0  0  0  0  0
    1.4543   14.3214   -5.9997 H   0  0  0  0  0  0  0  0  0  0  0  0
    0.1843   15.4810   -6.5183 H   0  0  0  0  0  0  0  0  0  0  0  0
    0.1504   14.7949   -4.8586 H   0  0  0  0  0  0  0  0  0  0  0  0
  1  2  2  0  0  0  0
  1  4  1  0  0  0  0
  1 13  1  0  0  0  0
  2  6  1  0  0  0  0
  3  4  2  0  0  0  0
  3  5  1  0  0  0  0
  5  6  2  0  0  0  0
  5  9  1  0  0  0  0
  6  7  1  0  0  0  0
  7  8  1  0  0  0  0
  7 10  2  3  0  0  0
  8  9  2  0  0  0  0
 10 15  1  0  0  0  0
 11 12  1  0  0  0  0
 11 13  2  0  0  0  0
 13 14  1  0  0  0  0
 15 16  1  0  0  0  0
 15 20  1  0  0  0  0
 16 17  2  0  0  0  0
 17 18  1  0  0  0  0
 18 19  1  0  0  0  0
 18 21  1  0  0  0  0
 19 20  2  0  0  0  0
 21 22  2  0  0  0  0
 21 25  1  0  0  0  0
 22 23  1  0  0  0  0
 23 24  1  0  0  0  0
 23 26  1  0  0  0  0
 24 25  2  0  0  0  0
  2 27  1  0  0  0  0
  3 28  1  0  0  0  0
  4 29  1  0  0  0  0
 10 30  1  0  0  0  0
 12 31  1  0  0  0  0
 12 32  1  0  0  0  0
 12 33  1  0  0  0  0
 14 34  1  0  0  0  0
 15 35  1  0  0  0  0
 16 36  1  0  0  0  0
 17 37  1  0  0  0  0
 18 38  1  0  0  0  0
 19 39  1  0  0  0  0
 20 40  1  0  0  0  0
 22 41  1  0  0  0  0
 25 42  1  0  0  0  0
 26 43  1  0  0  0  0
 26 44  1  0  0  0  0
 26 45  1  0  0  0  0
M  END
> <Name>
19

> <IC50[uM]>
0.015

$$$$
19
  -OEChem-05192314333D
 Structure written by MMmdl.
 45 48  0     1  0  0  0  0  0999 V2000
   -6.3863   12.3686  -12.0106 C   0  0  0  0  0  0  0  0  0  0  0  0
   -6.5303   11.8179  -10.7351 C   0  0  0  0  0  0  0  0  0  0  0  0
   -7.7274   10.5747  -13.0322 C   0  0  0  0  0  0  0  0  0  0  0  0
   -6.9939   11.7717  -13.1290 C   0  0  0  0  0  0  0  0  0  0  0  0
   -7.8233   10.0108  -11.7572 C   0  0  0  0  0  0  0  0  0  0  0  0
   -7.2504   10.6246  -10.6026 C   0  0  0  0  0  0  0  0  0  0  0  0
   -7.6148    9.7488   -9.5126 C   0  0  3  0  0  0  0  0  0  0  0  0
   -8.2772    8.7301   -9.9866 N   0  0  0  0  0  0  0  0  0  0  0  0
   -8.4133    8.8585  -11.2996 N   0  0  0  0  0  0  0  0  0  0  0  0
   -7.3367    9.8906   -8.0265 C   0  0  0  0  0  0  0  0  0  0  0  0
   -4.3739   13.6178  -11.5022 N   0  0  0  0  0  0  0  0  0  0  0  0
   -3.4056   14.7196  -11.5963 C   0  0  0  0  0  0  0  0  0  0  0  0
   -5.5407   13.6198  -12.1903 C   0  0  0  0  0  0  0  0  0  0  0  0
   -5.8948   14.5296  -12.9394 O   0  0  0  0  0  0  0  0  0  0  0  0
   -5.9610   10.4852   -7.7361 C   0  0  0  0  0  0  0  0  0  0  0  0
   -4.8098    9.7648   -8.0558 C   0  0  0  0  0  0  0  0  0  0  0  0
   -3.5520   10.3132   -7.8064 C   0  0  0  0  0  0  0  0  0  0  0  0
   -3.4430   11.5871   -7.2363 C   0  0  0  0  0  0  0  0  0  0  0  0
   -4.5944   12.3027   -6.9144 C   0  0  0  0  0  0  0  0  0  0  0  0
   -5.8504   11.7539   -7.1603 C   0  0  0  0  0  0  0  0  0  0  0  0
   -2.0991   12.1752   -6.9687 C   0  0  0  0  0  0  0  0  0  0  0  0
   -1.7663   13.4191   -6.4362 C   0  0  0  0  0  0  0  0  0  0  0  0
   -0.4291   13.4776   -6.3870 N   0  0  0  0  0  0  0  0  0  0  0  0
    0.1723   12.4029   -6.8190 N   0  0  0  0  0  0  0  0  0  0  0  0
   -0.8029   11.5945   -7.2007 C   0  0  0  0  0  0  0  0  0  0  0  0
    0.3904   14.5868   -5.9117 C   0  0  0  0  0  0  0  0  0  0  0  0
   -6.0966   12.3009   -9.8720 H   0  0  0  0  0  0  0  0  0  0  0  0
   -8.1900   10.1177  -13.8945 H   0  0  0  0  0  0  0  0  0  0  0  0
   -6.8945   12.2471  -14.0936 H   0  0  0  0  0  0  0  0  0  0  0  0
   -6.6717    9.1968   -9.6383 H   0  0  0  0  0  0  0  0  0  0  0  0
   -8.0374    9.6016   -7.2571 H   0  0  0  0  0  0  0  0  0  0  0  0
   -2.5387   14.5023  -10.9550 H   0  0  0  0  0  0  0  0  0  0  0  0
   -3.0724   14.8267  -12.6391 H   0  0  0  0  0  0  0  0  0  0  0  0
   -3.8811   15.6547  -11.2654 H   0  0  0  0  0  0  0  0  0  0  0  0
   -5.2461   15.2234  -12.9243 H   0  0  0  0  0  0  0  0  0  0  0  0
   -4.8927    8.7823   -8.4965 H   0  0  0  0  0  0  0  0  0  0  0  0
   -2.6613    9.7546   -8.0533 H   0  0  0  0  0  0  0  0  0  0  0  0
   -3.4418   12.0376   -8.2398 H   0  0  0  0  0  0  0  0  0  0  0  0
   -4.5126   13.2851   -6.4732 H   0  0  0  0  0  0  0  0  0  0  0  0
   -6.7407   12.3097   -6.9056 H   0  0  0  0  0  0  0  0  0  0  0  0
   -2.4554   14.1894   -6.1228 H   0  0  0  0  0  0  0  0  0  0  0  0
   -0.6455   10.6177   -7.6337 H   0  0  0  0  0  0  0  0  0  0  0  0
    1.4543   14.3214   -5.9997 H   0  0  0  0  0  0  0  0  0  0  0  0
    0.1843   15.4810   -6.5183 H   0  0  0  0  0  0  0  0  0  0  0  0
    0.1504   14.7949   -4.8586 H   0  0  0  0  0  0  0  0  0  0  0  0
  1  2  2  0  0  0  0
  1  4  1  0  0  0  0
  1 13  1  0  0  0  0
  2  6  1  0  0  0  0
  3  4  2  0  0  0  0
  3  5  1  0  0  0  0
  5  6  2  0  0  0  0
  5  9  1  0  0  0  0
  6  7  1  0  0  0  0
  7  8  1  0  0  0  0
  7 10  1  0  0  0  0
  8  9  2  0  0  0  0
 10 15  2  0  0  0  0
 11 12  1  0  0  0  0
 11 13  2  0  0  0  0
 13 14  1  0  0  0  0
 15 16  1  0  0  0  0
 15 20  1  0  0  0  0
 16 17  2  0  0  0  0
 17 18  1  0  0  0  0
 18 19  1  0  0  0  0
 18 21  1  0  0  0  0
 19 20  2  0  0  0  0
 21 22  2  0  0  0  0
 21 25  1  0  0  0  0
 22 23  1  0  0  0  0
 23 24  1  0  0  0  0
 23 26  1  0  0  0  0
 24 25  2  0  0  0  0
  2 27  1  0  0  0  0
  3 28  1  0  0  0  0
  4 29  1  0  0  0  0
  7 30  1  0  0  0  0
 10 31  1  0  0  0  0
 12 32  1  0  0  0  0
 12 33  1  0  0  0  0
 12 34  1  0  0  0  0
 14 35  1  0  0  0  0
 16 36  1  0  0  0  0
 17 37  1  0  0  0  0
 18 38  1  0  0  0  0
 19 39  1  0  0  0  0
 20 40  1  0  0  0  0
 22 41  1  0  0  0  0
 25 42  1  0  0  0  0
 26 43  1  0  0  0  0
 26 44  1  0  0  0  0
 26 45  1  0  0  0  0
M  END
> <Name>
19

> <IC50[uM]>
0.015

$$$$
19
  -OEChem-05192314333D
 Structure written by MMmdl.
 45 48  0     1  0  0  0  0  0999 V2000
   -6.3863   12.3686  -12.0106 C   0  0  3  0  0  0  0  0  0  0  0  0
   -6.5303   11.8179  -10.7351 C   0  0  0  0  0  0  0  0  0  0  0  0
   -7.7274   10.5747  -13.0322 C   0  0  0  0  0  0  0  0  0  0  0  0
   -6.9939   11.7717  -13.1290 C   0  0  0  0  0  0  0  0  0  0  0  0
   -7.8233   10.0108  -11.7572 C   0  0  3  0  0  0  0  0  0  0  0  0
   -7.2504   10.6246  -10.6026 C   0  0  0  0  0  0  0  0  0  0  0  0
   -7.6148    9.7488   -9.5126 C   0  0  0  0  0  0  0  0  0  0  0  0
   -8.2772    8.7301   -9.9866 N   0  0  0  0  0  0  0  0  0  0  0  0
   -8.4133    8.8585  -11.2996 N   0  0  0  0  0  0  0  0  0  0  0  0
   -7.3367    9.8906   -8.0265 C   0  0  0  0  0  0  0  0  0  0  0  0
   -4.3739   13.6178  -11.5022 N   0  0  0  0  0  0  0  0  0  0  0  0
   -3.4056   14.7196  -11.5963 C   0  0  0  0  0  0  0  0  0  0  0  0
   -5.5407   13.6198  -12.1903 C   0  0  0  0  0  0  0  0  0  0  0  0
   -5.8948   14.5296  -12.9394 O   0  0  0  0  0  0  0  0  0  0  0  0
   -5.9610   10.4852   -7.7361 C   0  0  0  0  0  0  0  0  0  0  0  0
   -4.8098    9.7648   -8.0558 C   0  0  0  0  0  0  0  0  0  0  0  0
   -3.5520   10.3132   -7.8064 C   0  0  0  0  0  0  0  0  0  0  0  0
   -3.4430   11.5871   -7.2363 C   0  0  0  0  0  0  0  0  0  0  0  0
   -4.5944   12.3027   -6.9144 C   0  0  0  0  0  0  0  0  0  0  0  0
   -5.8504   11.7539   -7.1603 C   0  0  0  0  0  0  0  0  0  0  0  0
   -2.0991   12.1752   -6.9687 C   0  0  0  0  0  0  0  0  0  0  0  0
   -1.7663   13.4191   -6.4362 C   0  0  0  0  0  0  0  0  0  0  0  0
   -0.4291   13.4776   -6.3870 N   0  0  0  0  0  0  0  0  0  0  0  0
    0.1723   12.4029   -6.8190 N   0  0  0  0  0  0  0  0  0  0  0  0
   -0.8029   11.5945   -7.2007 C   0  0  0  0  0  0  0  0  0  0  0  0
    0.3904   14.5868   -5.9117 C   0  0  0  0  0  0  0  0  0  0  0  0
   -7.2799   12.9895  -11.8495 H   0  0  0  0  0  0  0  0  0  0  0  0
   -6.0966   12.3009   -9.8720 H   0  0  0  0  0  0  0  0  0  0  0  0
   -8.1900   10.1177  -13.8945 H   0  0  0  0  0  0  0  0  0  0  0  0
   -6.8945   12.2471  -14.0936 H   0  0  0  0  0  0  0  0  0  0  0  0
   -8.7607   10.5598  -11.5844 H   0  0  0  0  0  0  0  0  0  0  0  0
   -8.0374    9.6016   -7.2571 H   0  0  0  0  0  0  0  0  0  0  0  0
   -2.5387   14.5023  -10.9550 H   0  0  0  0  0  0  0  0  0  0  0  0
   -3.0724   14.8267  -12.6391 H   0  0  0  0  0  0  0  0  0  0  0  0
   -3.8811   15.6547  -11.2654 H   0  0  0  0  0  0  0  0  0  0  0  0
   -5.2461   15.2234  -12.9243 H   0  0  0  0  0  0  0  0  0  0  0  0
   -4.8927    8.7823   -8.4965 H   0  0  0  0  0  0  0  0  0  0  0  0
   -2.6613    9.7546   -8.0533 H   0  0  0  0  0  0  0  0  0  0  0  0
   -4.5126   13.2851   -6.4732 H   0  0  0  0  0  0  0  0  0  0  0  0
   -6.7407   12.3097   -6.9056 H   0  0  0  0  0  0  0  0  0  0  0  0
   -2.4554   14.1894   -6.1228 H   0  0  0  0  0  0  0  0  0  0  0  0
   -0.6455   10.6177   -7.6337 H   0  0  0  0  0  0  0  0  0  0  0  0
    1.4543   14.3214   -5.9997 H   0  0  0  0  0  0  0  0  0  0  0  0
    0.1843   15.4810   -6.5183 H   0  0  0  0  0  0  0  0  0  0  0  0
    0.1504   14.7949   -4.8586 H   0  0  0  0  0  0  0  0  0  0  0  0
  1  2  1  0  0  0  0
  1  4  1  0  0  0  0
  1 13  1  0  0  0  0
  2  6  2  0  0  0  0
  3  4  2  0  0  0  0
  3  5  1  0  0  0  0
  5  6  1  0  0  0  0
  5  9  1  0  0  0  0
  6  7  1  0  0  0  0
  7  8  1  0  0  0  0
  7 10  2  3  0  0  0
  8  9  2  0  0  0  0
 10 15  1  0  0  0  0
 11 12  1  0  0  0  0
 11 13  2  0  0  0  0
 13 14  1  0  0  0  0
 15 16  2  0  0  0  0
 15 20  1  0  0  0  0
 16 17  1  0  0  0  0
 17 18  2  0  0  0  0
 18 19  1  0  0  0  0
 18 21  1  0  0  0  0
 19 20  2  0  0  0  0
 21 22  2  0  0  0  0
 21 25  1  0  0  0  0
 22 23  1  0  0  0  0
 23 24  1  0  0  0  0
 23 26  1  0  0  0  0
 24 25  2  0  0  0  0
  1 27  1  0  0  0  0
  2 28  1  0  0  0  0
  3 29  1  0  0  0  0
  4 30  1  0  0  0  0
  5 31  1  0  0  0  0
 10 32  1  0  0  0  0
 12 33  1  0  0  0  0
 12 34  1  0  0  0  0
 12 35  1  0  0  0  0
 14 36  1  0  0  0  0
 16 37  1  0  0  0  0
 17 38  1  0  0  0  0
 19 39  1  0  0  0  0
 20 40  1  0  0  0  0
 22 41  1  0  0  0  0
 25 42  1  0  0  0  0
 26 43  1  0  0  0  0
 26 44  1  0  0  0  0
 26 45  1  0  0  0  0
M  END
> <Name>
19

> <IC50[uM]>
0.015

$$$$
19
  -OEChem-05192314333D
 Structure written by MMmdl.
 45 48  0     1  0  0  0  0  0999 V2000
   -6.3863   12.3686  -12.0106 C   0  0  0  0  0  0  0  0  0  0  0  0
   -6.5303   11.8179  -10.7351 C   0  0  0  0  0  0  0  0  0  0  0  0
   -7.7274   10.5747  -13.0322 C   0  0  0  0  0  0  0  0  0  0  0  0
   -6.9939   11.7717  -13.1290 C   0  0  0  0  0  0  0  0  0  0  0  0
   -7.8233   10.0108  -11.7572 C   0  0  3  0  0  0  0  0  0  0  0  0
   -7.2504   10.6246  -10.6026 C   0  0  3  0  0  0  0  0  0  0  0  0
   -7.6148    9.7488   -9.5126 C   0  0  0  0  0  0  0  0  0  0  0  0
   -8.2772    8.7301   -9.9866 N   0  0  0  0  0  0  0  0  0  0  0  0
   -8.4133    8.8585  -11.2996 N   0  0  0  0  0  0  0  0  0  0  0  0
   -7.3367    9.8906   -8.0265 C   0  0  0  0  0  0  0  0  0  0  0  0
   -4.3739   13.6178  -11.5022 N   0  0  0  0  0  0  0  0  0  0  0  0
   -3.4056   14.7196  -11.5963 C   0  0  0  0  0  0  0  0  0  0  0  0
   -5.5407   13.6198  -12.1903 C   0  0  0  0  0  0  0  0  0  0  0  0
   -5.8948   14.5296  -12.9394 O   0  0  0  0  0  0  0  0  0  0  0  0
   -5.9610   10.4852   -7.7361 C   0  0  0  0  0  0  0  0  0  0  0  0
   -4.8098    9.7648   -8.0558 C   0  0  0  0  0  0  0  0  0  0  0  0
   -3.5520   10.3132   -7.8064 C   0  0  0  0  0  0  0  0  0  0  0  0
   -3.4430   11.5871   -7.2363 C   0  0  0  0  0  0  0  0  0  0  0  0
   -4.5944   12.3027   -6.9144 C   0  0  0  0  0  0  0  0  0  0  0  0
   -5.8504   11.7539   -7.1603 C   0  0  0  0  0  0  0  0  0  0  0  0
   -2.0991   12.1752   -6.9687 C   0  0  0  0  0  0  0  0  0  0  0  0
   -1.7663   13.4191   -6.4362 C   0  0  0  0  0  0  0  0  0  0  0  0
   -0.4291   13.4776   -6.3870 N   0  0  0  0  0  0  0  0  0  0  0  0
    0.1723   12.4029   -6.8190 N   0  0  0  0  0  0  0  0  0  0  0  0
   -0.8029   11.5945   -7.2007 C   0  0  0  0  0  0  0  0  0  0  0  0
    0.3904   14.5868   -5.9117 C   0  0  0  0  0  0  0  0  0  0  0  0
   -6.0966   12.3009   -9.8720 H   0  0  0  0  0  0  0  0  0  0  0  0
   -8.1900   10.1177  -13.8945 H   0  0  0  0  0  0  0  0  0  0  0  0
   -6.8945   12.2471  -14.0936 H   0  0  0  0  0  0  0  0  0  0  0  0
   -8.7607   10.5598  -11.5844 H   0  0  0  0  0  0  0  0  0  0  0  0
   -6.3254   10.0493  -10.7557 H   0  0  0  0  0  0  0  0  0  0  0  0
   -8.0374    9.6016   -7.2571 H   0  0  0  0  0  0  0  0  0  0  0  0
   -2.5387   14.5023  -10.9550 H   0  0  0  0  0  0  0  0  0  0  0  0
   -3.0724   14.8267  -12.6391 H   0  0  0  0  0  0  0  0  0  0  0  0
   -3.8811   15.6547  -11.2654 H   0  0  0  0  0  0  0  0  0  0  0  0
   -5.2461   15.2234  -12.9243 H   0  0  0  0  0  0  0  0  0  0  0  0
   -4.8927    8.7823   -8.4965 H   0  0  0  0  0  0  0  0  0  0  0  0
   -2.6613    9.7546   -8.0533 H   0  0  0  0  0  0  0  0  0  0  0  0
   -4.5126   13.2851   -6.4732 H   0  0  0  0  0  0  0  0  0  0  0  0
   -6.7407   12.3097   -6.9056 H   0  0  0  0  0  0  0  0  0  0  0  0
   -2.4554   14.1894   -6.1228 H   0  0  0  0  0  0  0  0  0  0  0  0
   -0.6455   10.6177   -7.6337 H   0  0  0  0  0  0  0  0  0  0  0  0
    1.4543   14.3214   -5.9997 H   0  0  0  0  0  0  0  0  0  0  0  0
    0.1843   15.4810   -6.5183 H   0  0  0  0  0  0  0  0  0  0  0  0
    0.1504   14.7949   -4.8586 H   0  0  0  0  0  0  0  0  0  0  0  0
  1  2  2  0  0  0  0
  1  4  1  0  0  0  0
  1 13  1  0  0  0  0
  2  6  1  0  0  0  0
  3  4  2  0  0  0  0
  3  5  1  0  0  0  0
  5  6  1  0  0  0  0
  5  9  1  0  0  0  0
  6  7  1  0  0  0  0
  7  8  1  0  0  0  0
  7 10  2  3  0  0  0
  8  9  2  0  0  0  0
 10 15  1  0  0  0  0
 11 12  1  0  0  0  0
 11 13  2  0  0  0  0
 13 14  1  0  0  0  0
 15 16  2  0  0  0  0
 15 20  1  0  0  0  0
 16 17  1  0  0  0  0
 17 18  2  0  0  0  0
 18 19  1  0  0  0  0
 18 21  1  0  0  0  0
 19 20  2  0  0  0  0
 21 22  2  0  0  0  0
 21 25  1  0  0  0  0
 22 23  1  0  0  0  0
 23 24  1  0  0  0  0
 23 26  1  0  0  0  0
 24 25  2  0  0  0  0
  2 27  1  0  0  0  0
  3 28  1  0  0  0  0
  4 29  1  0  0  0  0
  5 30  1  0  0  0  0
  6 31  1  0  0  0  0
 10 32  1  0  0  0  0
 12 33  1  0  0  0  0
 12 34  1  0  0  0  0
 12 35  1  0  0  0  0
 14 36  1  0  0  0  0
 16 37  1  0  0  0  0
 17 38  1  0  0  0  0
 19 39  1  0  0  0  0
 20 40  1  0  0  0  0
 22 41  1  0  0  0  0
 25 42  1  0  0  0  0
 26 43  1  0  0  0  0
 26 44  1  0  0  0  0
 26 45  1  0  0  0  0
M  END
> <Name>
19

> <IC50[uM]>
0.015

$$$$
19
  -OEChem-05192314333D
 Structure written by MMmdl.
 45 48  0     1  0  0  0  0  0999 V2000
   -6.3863   12.3686  -12.0106 C   0  0  0  0  0  0  0  0  0  0  0  0
   -6.5303   11.8179  -10.7351 C   0  0  0  0  0  0  0  0  0  0  0  0
   -7.7274   10.5747  -13.0322 C   0  0  0  0  0  0  0  0  0  0  0  0
   -6.9939   11.7717  -13.1290 C   0  0  0  0  0  0  0  0  0  0  0  0
   -7.8233   10.0108  -11.7572 C   0  0  3  0  0  0  0  0  0  0  0  0
   -7.2504   10.6246  -10.6026 C   0  0  0  0  0  0  0  0  0  0  0  0
   -7.6148    9.7488   -9.5126 C   0  0  0  0  0  0  0  0  0  0  0  0
   -8.2772    8.7301   -9.9866 N   0  0  0  0  0  0  0  0  0  0  0  0
   -8.4133    8.8585  -11.2996 N   0  0  0  0  0  0  0  0  0  0  0  0
   -7.3367    9.8906   -8.0265 C   0  0  0  0  0  0  0  0  0  0  0  0
   -4.3739   13.6178  -11.5022 N   0  0  0  0  0  0  0  0  0  0  0  0
   -3.4056   14.7196  -11.5963 C   0  0  0  0  0  0  0  0  0  0  0  0
   -5.5407   13.6198  -12.1903 C   0  0  0  0  0  0  0  0  0  0  0  0
   -5.8948   14.5296  -12.9394 O   0  0  0  0  0  0  0  0  0  0  0  0
   -5.9610   10.4852   -7.7361 C   0  0  0  0  0  0  0  0  0  0  0  0
   -4.8098    9.7648   -8.0558 C   0  0  0  0  0  0  0  0  0  0  0  0
   -3.5520   10.3132   -7.8064 C   0  0  0  0  0  0  0  0  0  0  0  0
   -3.4430   11.5871   -7.2363 C   0  0  0  0  0  0  0  0  0  0  0  0
   -4.5944   12.3027   -6.9144 C   0  0  0  0  0  0  0  0  0  0  0  0
   -5.8504   11.7539   -7.1603 C   0  0  0  0  0  0  0  0  0  0  0  0
   -2.0991   12.1752   -6.9687 C   0  0  0  0  0  0  0  0  0  0  0  0
   -1.7663   13.4191   -6.4362 C   0  0  0  0  0  0  0  0  0  0  0  0
   -0.4291   13.4776   -6.3870 N   0  0  0  0  0  0  0  0  0  0  0  0
    0.1723   12.4029   -6.8190 N   0  0  0  0  0  0  0  0  0  0  0  0
   -0.8029   11.5945   -7.2007 C   0  0  0  0  0  0  0  0  0  0  0  0
    0.3904   14.5868   -5.9117 C   0  0  0  0  0  0  0  0  0  0  0  0
   -6.0966   12.3009   -9.8720 H   0  0  0  0  0  0  0  0  0  0  0  0
   -8.7487   10.7774  -13.3871 H   0  0  0  0  0  0  0  0  0  0  0  0
   -7.2503    9.8346  -13.6914 H   0  0  0  0  0  0  0  0  0  0  0  0
   -6.8945   12.2471  -14.0936 H   0  0  0  0  0  0  0  0  0  0  0  0
   -8.7607   10.5598  -11.5844 H   0  0  0  0  0  0  0  0  0  0  0  0
   -8.0374    9.6016   -7.2571 H   0  0  0  0  0  0  0  0  0  0  0  0
   -2.5387   14.5023  -10.9550 H   0  0  0  0  0  0  0  0  0  0  0  0
   -3.0724   14.8267  -12.6391 H   0  0  0  0  0  0  0  0  0  0  0  0
   -3.8811   15.6547  -11.2654 H   0  0  0  0  0  0  0  0  0  0  0  0
   -5.2461   15.2234  -12.9243 H   0  0  0  0  0  0  0  0  0  0  0  0
   -4.8927    8.7823   -8.4965 H   0  0  0  0  0  0  0  0  0  0  0  0
   -2.6613    9.7546   -8.0533 H   0  0  0  0  0  0  0  0  0  0  0  0
   -4.5126   13.2851   -6.4732 H   0  0  0  0  0  0  0  0  0  0  0  0
   -6.7407   12.3097   -6.9056 H   0  0  0  0  0  0  0  0  0  0  0  0
   -2.4554   14.1894   -6.1228 H   0  0  0  0  0  0  0  0  0  0  0  0
   -0.6455   10.6177   -7.6337 H   0  0  0  0  0  0  0  0  0  0  0  0
    1.4543   14.3214   -5.9997 H   0  0  0  0  0  0  0  0  0  0  0  0
    0.1843   15.4810   -6.5183 H   0  0  0  0  0  0  0  0  0  0  0  0
    0.1504   14.7949   -4.8586 H   0  0  0  0  0  0  0  0  0  0  0  0
  1  2  1  0  0  0  0
  1  4  2  0  0  0  0
  1 13  1  0  0  0  0
  2  6  2  0  0  0  0
  3  4  1  0  0  0  0
  3  5  1  0  0  0  0
  5  6  1  0  0  0  0
  5  9  1  0  0  0  0
  6  7  1  0  0  0  0
  7  8  1  0  0  0  0
  7 10  2  3  0  0  0
  8  9  2  0  0  0  0
 10 15  1  0  0  0  0
 11 12  1  0  0  0  0
 11 13  2  0  0  0  0
 13 14  1  0  0  0  0
 15 16  2  0  0  0  0
 15 20  1  0  0  0  0
 16 17  1  0  0  0  0
 17 18  2  0  0  0  0
 18 19  1  0  0  0  0
 18 21  1  0  0  0  0
 19 20  2  0  0  0  0
 21 22  2  0  0  0  0
 21 25  1  0  0  0  0
 22 23  1  0  0  0  0
 23 24  1  0  0  0  0
 23 26  1  0  0  0  0
 24 25  2  0  0  0  0
  2 27  1  0  0  0  0
  3 28  1  0  0  0  0
  3 29  1  0  0  0  0
  4 30  1  0  0  0  0
  5 31  1  0  0  0  0
 10 32  1  0  0  0  0
 12 33  1  0  0  0  0
 12 34  1  0  0  0  0
 12 35  1  0  0  0  0
 14 36  1  0  0  0  0
 16 37  1  0  0  0  0
 17 38  1  0  0  0  0
 19 39  1  0  0  0  0
 20 40  1  0  0  0  0
 22 41  1  0  0  0  0
 25 42  1  0  0  0  0
 26 43  1  0  0  0  0
 26 44  1  0  0  0  0
 26 45  1  0  0  0  0
M  END
> <Name>
19

> <IC50[uM]>
0.015

$$$$
19
  -OEChem-05192314333D
 Structure written by MMmdl.
 45 48  0     1  0  0  0  0  0999 V2000
   -6.3863   12.3686  -12.0106 C   0  0  0  0  0  0  0  0  0  0  0  0
   -6.5303   11.8179  -10.7351 C   0  0  0  0  0  0  0  0  0  0  0  0
   -7.7274   10.5747  -13.0322 C   0  0  0  0  0  0  0  0  0  0  0  0
   -6.9939   11.7717  -13.1290 C   0  0  0  0  0  0  0  0  0  0  0  0
   -7.8233   10.0108  -11.7572 C   0  0  0  0  0  0  0  0  0  0  0  0
   -7.2504   10.6246  -10.6026 C   0  0  0  0  0  0  0  0  0  0  0  0
   -7.6148    9.7488   -9.5126 C   0  0  0  0  0  0  0  0  0  0  0  0
   -8.2772    8.7301   -9.9866 N   0  0  0  0  0  0  0  0  0  0  0  0
   -8.4133    8.8585  -11.2996 N   0  0  0  0  0  0  0  0  0  0  0  0
   -7.3367    9.8906   -8.0265 C   0  0  0  0  0  0  0  0  0  0  0  0
   -4.3739   13.6178  -11.5022 N   0  0  0  0  0  0  0  0  0  0  0  0
   -3.4056   14.7196  -11.5963 C   0  0  0  0  0  0  0  0  0  0  0  0
   -5.5407   13.6198  -12.1903 C   0  0  0  0  0  0  0  0  0  0  0  0
   -5.8948   14.5296  -12.9394 O   0  0  0  0  0  0  0  0  0  0  0  0
   -5.9610   10.4852   -7.7361 C   0  0  0  0  0  0  0  0  0  0  0  0
   -4.8098    9.7648   -8.0558 C   0  0  0  0  0  0  0  0  0  0  0  0
   -3.5520   10.3132   -7.8064 C   0  0  0  0  0  0  0  0  0  0  0  0
   -3.4430   11.5871   -7.2363 C   0  0  3  0  0  0  0  0  0  0  0  0
   -4.5944   12.3027   -6.9144 C   0  0  0  0  0  0  0  0  0  0  0  0
   -5.8504   11.7539   -7.1603 C   0  0  0  0  0  0  0  0  0  0  0  0
   -2.0991   12.1752   -6.9687 C   0  0  0  0  0  0  0  0  0  0  0  0
   -1.7663   13.4191   -6.4362 C   0  0  0  0  0  0  0  0  0  0  0  0
   -0.4291   13.4776   -6.3870 N   0  0  0  0  0  0  0  0  0  0  0  0
    0.1723   12.4029   -6.8190 N   0  0  0  0  0  0  0  0  0  0  0  0
   -0.8029   11.5945   -7.2007 C   0  0  0  0  0  0  0  0  0  0  0  0
    0.3904   14.5868   -5.9117 C   0  0  0  0  0  0  0  0  0  0  0  0
   -6.0966   12.3009   -9.8720 H   0  0  0  0  0  0  0  0  0  0  0  0
   -8.1900   10.1177  -13.8945 H   0  0  0  0  0  0  0  0  0  0  0  0
   -6.8945   12.2471  -14.0936 H   0  0  0  0  0  0  0  0  0  0  0  0
   -8.0374    9.6016   -7.2571 H   0  0  0  0  0  0  0  0  0  0  0  0
   -2.5387   14.5023  -10.9550 H   0  0  0  0  0  0  0  0  0  0  0  0
   -3.0724   14.8267  -12.6391 H   0  0  0  0  0  0  0  0  0  0  0  0
   -3.8811   15.6547  -11.2654 H   0  0  0  0  0  0  0  0  0  0  0  0
   -5.2461   15.2234  -12.9243 H   0  0  0  0  0  0  0  0  0  0  0  0
   -4.8927    8.7823   -8.4965 H   0  0  0  0  0  0  0  0  0  0  0  0
   -3.0309    9.6180   -7.1317 H   0  0  0  0  0  0  0  0  0  0  0  0
   -3.0255   10.3514   -8.7715 H   0  0  0  0  0  0  0  0  0  0  0  0
   -3.4418   12.0376   -8.2398 H   0  0  0  0  0  0  0  0  0  0  0  0
   -4.5126   13.2851   -6.4732 H   0  0  0  0  0  0  0  0  0  0  0  0
   -6.7407   12.3097   -6.9056 H   0  0  0  0  0  0  0  0  0  0  0  0
   -2.4554   14.1894   -6.1228 H   0  0  0  0  0  0  0  0  0  0  0  0
   -0.6455   10.6177   -7.6337 H   0  0  0  0  0  0  0  0  0  0  0  0
    1.4543   14.3214   -5.9997 H   0  0  0  0  0  0  0  0  0  0  0  0
    0.1843   15.4810   -6.5183 H   0  0  0  0  0  0  0  0  0  0  0  0
    0.1504   14.7949   -4.8586 H   0  0  0  0  0  0  0  0  0  0  0  0
  1  2  2  0  0  0  0
  1  4  1  0  0  0  0
  1 13  1  0  0  0  0
  2  6  1  0  0  0  0
  3  4  2  0  0  0  0
  3  5  1  0  0  0  0
  5  6  2  0  0  0  0
  5  9  1  0  0  0  0
  6  7  1  0  0  0  0
  7  8  1  0  0  0  0
  7 10  2  3  0  0  0
  8  9  2  0  0  0  0
 10 15  1  0  0  0  0
 11 12  1  0  0  0  0
 11 13  2  0  0  0  0
 13 14  1  0  0  0  0
 15 16  2  0  0  0  0
 15 20  1  0  0  0  0
 16 17  1  0  0  0  0
 17 18  1  0  0  0  0
 18 19  1  0  0  0  0
 18 21  1  0  0  0  0
 19 20  2  0  0  0  0
 21 22  2  0  0  0  0
 21 25  1  0  0  0  0
 22 23  1  0  0  0  0
 23 24  1  0  0  0  0
 23 26  1  0  0  0  0
 24 25  2  0  0  0  0
  2 27  1  0  0  0  0
  3 28  1  0  0  0  0
  4 29  1  0  0  0  0
 10 30  1  0  0  0  0
 12 31  1  0  0  0  0
 12 32  1  0  0  0  0
 12 33  1  0  0  0  0
 14 34  1  0  0  0  0
 16 35  1  0  0  0  0
 17 36  1  0  0  0  0
 17 37  1  0  0  0  0
 18 38  1  0  0  0  0
 19 39  1  0  0  0  0
 20 40  1  0  0  0  0
 22 41  1  0  0  0  0
 25 42  1  0  0  0  0
 26 43  1  0  0  0  0
 26 44  1  0  0  0  0
 26 45  1  0  0  0  0
M  END
> <Name>
19

> <IC50[uM]>
0.015

$$$$
19
  -OEChem-05192314333D
 Structure written by MMmdl.
 45 48  0     1  0  0  0  0  0999 V2000
   -6.3863   12.3686  -12.0106 C   0  0  3  0  0  0  0  0  0  0  0  0
   -6.5303   11.8179  -10.7351 C   0  0  0  0  0  0  0  0  0  0  0  0
   -7.7274   10.5747  -13.0322 C   0  0  0  0  0  0  0  0  0  0  0  0
   -6.9939   11.7717  -13.1290 C   0  0  0  0  0  0  0  0  0  0  0  0
   -7.8233   10.0108  -11.7572 C   0  0  0  0  0  0  0  0  0  0  0  0
   -7.2504   10.6246  -10.6026 C   0  0  0  0  0  0  0  0  0  0  0  0
   -7.6148    9.7488   -9.5126 C   0  0  0  0  0  0  0  0  0  0  0  0
   -8.2772    8.7301   -9.9866 N   0  0  0  0  0  0  0  0  0  0  0  0
   -8.4133    8.8585  -11.2996 N   0  0  0  0  0  0  0  0  0  0  0  0
   -7.3367    9.8906   -8.0265 C   0  0  0  0  0  0  0  0  0  0  0  0
   -4.3739   13.6178  -11.5022 N   0  0  0  0  0  0  0  0  0  0  0  0
   -3.4056   14.7196  -11.5963 C   0  0  0  0  0  0  0  0  0  0  0  0
   -5.5407   13.6198  -12.1903 C   0  0  0  0  0  0  0  0  0  0  0  0
   -5.8948   14.5296  -12.9394 O   0  0  0  0  0  0  0  0  0  0  0  0
   -5.9610   10.4852   -7.7361 C   0  0  0  0  0  0  0  0  0  0  0  0
   -4.8098    9.7648   -8.0558 C   0  0  0  0  0  0  0  0  0  0  0  0
   -3.5520   10.3132   -7.8064 C   0  0  0  0  0  0  0  0  0  0  0  0
   -3.4430   11.5871   -7.2363 C   0  0  0  0  0  0  0  0  0  0  0  0
   -4.5944   12.3027   -6.9144 C   0  0  0  0  0  0  0  0  0  0  0  0
   -5.8504   11.7539   -7.1603 C   0  0  0  0  0  0  0  0  0  0  0  0
   -2.0991   12.1752   -6.9687 C   0  0  0  0  0  0  0  0  0  0  0  0
   -1.7663   13.4191   -6.4362 C   0  0  0  0  0  0  0  0  0  0  0  0
   -0.4291   13.4776   -6.3870 N   0  0  0  0  0  0  0  0  0  0  0  0
    0.1723   12.4029   -6.8190 N   0  0  0  0  0  0  0  0  0  0  0  0
   -0.8029   11.5945   -7.2007 C   0  0  0  0  0  0  0  0  0  0  0  0
    0.3904   14.5868   -5.9117 C   0  0  0  0  0  0  0  0  0  0  0  0
   -7.2799   12.9895  -11.8495 H   0  0  0  0  0  0  0  0  0  0  0  0
   -6.0966   12.3009   -9.8720 H   0  0  0  0  0  0  0  0  0  0  0  0
   -8.1900   10.1177  -13.8945 H   0  0  0  0  0  0  0  0  0  0  0  0
   -7.6841   12.5226  -13.5411 H   0  0  0  0  0  0  0  0  0  0  0  0
   -6.1868   11.5800  -13.8514 H   0  0  0  0  0  0  0  0  0  0  0  0
   -8.0374    9.6016   -7.2571 H   0  0  0  0  0  0  0  0  0  0  0  0
   -2.5387   14.5023  -10.9550 H   0  0  0  0  0  0  0  0  0  0  0  0
   -3.0724   14.8267  -12.6391 H   0  0  0  0  0  0  0  0  0  0  0  0
   -3.8811   15.6547  -11.2654 H   0  0  0  0  0  0  0  0  0  0  0  0
   -5.2461   15.2234  -12.9243 H   0  0  0  0  0  0  0  0  0  0  0  0
   -4.8927    8.7823   -8.4965 H   0  0  0  0  0  0  0  0  0  0  0  0
   -2.6613    9.7546   -8.0533 H   0  0  0  0  0  0  0  0  0  0  0  0
   -4.5126   13.2851   -6.4732 H   0  0  0  0  0  0  0  0  0  0  0  0
   -6.7407   12.3097   -6.9056 H   0  0  0  0  0  0  0  0  0  0  0  0
   -2.4554   14.1894   -6.1228 H   0  0  0  0  0  0  0  0  0  0  0  0
   -0.6455   10.6177   -7.6337 H   0  0  0  0  0  0  0  0  0  0  0  0
    1.4543   14.3214   -5.9997 H   0  0  0  0  0  0  0  0  0  0  0  0
    0.1843   15.4810   -6.5183 H   0  0  0  0  0  0  0  0  0  0  0  0
    0.1504   14.7949   -4.8586 H   0  0  0  0  0  0  0  0  0  0  0  0
  1  2  1  0  0  0  0
  1  4  1  0  0  0  0
  1 13  1  0  0  0  0
  2  6  2  0  0  0  0
  3  4  1  0  0  0  0
  3  5  2  0  0  0  0
  5  6  1  0  0  0  0
  5  9  1  0  0  0  0
  6  7  1  0  0  0  0
  7  8  1  0  0  0  0
  7 10  2  3  0  0  0
  8  9  2  0  0  0  0
 10 15  1  0  0  0  0
 11 12  1  0  0  0  0
 11 13  2  0  0  0  0
 13 14  1  0  0  0  0
 15 16  2  0  0  0  0
 15 20  1  0  0  0  0
 16 17  1  0  0  0  0
 17 18  2  0  0  0  0
 18 19  1  0  0  0  0
 18 21  1  0  0  0  0
 19 20  2  0  0  0  0
 21 22  2  0  0  0  0
 21 25  1  0  0  0  0
 22 23  1  0  0  0  0
 23 24  1  0  0  0  0
 23 26  1  0  0  0  0
 24 25  2  0  0  0  0
  1 27  1  0  0  0  0
  2 28  1  0  0  0  0
  3 29  1  0  0  0  0
  4 30  1  0  0  0  0
  4 31  1  0  0  0  0
 10 32  1  0  0  0  0
 12 33  1  0  0  0  0
 12 34  1  0  0  0  0
 12 35  1  0  0  0  0
 14 36  1  0  0  0  0
 16 37  1  0  0  0  0
 17 38  1  0  0  0  0
 19 39  1  0  0  0  0
 20 40  1  0  0  0  0
 22 41  1  0  0  0  0
 25 42  1  0  0  0  0
 26 43  1  0  0  0  0
 26 44  1  0  0  0  0
 26 45  1  0  0  0  0
M  END
> <Name>
19

> <IC50[uM]>
0.015

$$$$
19
  -OEChem-05192314333D
 Structure written by MMmdl.
 45 48  0     1  0  0  0  0  0999 V2000
   -6.3863   12.3686  -12.0106 C   0  0  0  0  0  0  0  0  0  0  0  0
   -6.5303   11.8179  -10.7351 C   0  0  0  0  0  0  0  0  0  0  0  0
   -7.7274   10.5747  -13.0322 C   0  0  0  0  0  0  0  0  0  0  0  0
   -6.9939   11.7717  -13.1290 C   0  0  0  0  0  0  0  0  0  0  0  0
   -7.8233   10.0108  -11.7572 C   0  0  0  0  0  0  0  0  0  0  0  0
   -7.2504   10.6246  -10.6026 C   0  0  3  0  0  0  0  0  0  0  0  0
   -7.6148    9.7488   -9.5126 C   0  0  0  0  0  0  0  0  0  0  0  0
   -8.2772    8.7301   -9.9866 N   0  0  0  0  0  0  0  0  0  0  0  0
   -8.4133    8.8585  -11.2996 N   0  0  0  0  0  0  0  0  0  0  0  0
   -7.3367    9.8906   -8.0265 C   0  0  0  0  0  0  0  0  0  0  0  0
   -4.3739   13.6178  -11.5022 N   0  0  0  0  0  0  0  0  0  0  0  0
   -3.4056   14.7196  -11.5963 C   0  0  0  0  0  0  0  0  0  0  0  0
   -5.5407   13.6198  -12.1903 C   0  0  0  0  0  0  0  0  0  0  0  0
   -5.8948   14.5296  -12.9394 O   0  0  0  0  0  0  0  0  0  0  0  0
   -5.9610   10.4852   -7.7361 C   0  0  0  0  0  0  0  0  0  0  0  0
   -4.8098    9.7648   -8.0558 C   0  0  0  0  0  0  0  0  0  0  0  0
   -3.5520   10.3132   -7.8064 C   0  0  0  0  0  0  0  0  0  0  0  0
   -3.4430   11.5871   -7.2363 C   0  0  0  0  0  0  0  0  0  0  0  0
   -4.5944   12.3027   -6.9144 C   0  0  0  0  0  0  0  0  0  0  0  0
   -5.8504   11.7539   -7.1603 C   0  0  0  0  0  0  0  0  0  0  0  0
   -2.0991   12.1752   -6.9687 C   0  0  0  0  0  0  0  0  0  0  0  0
   -1.7663   13.4191   -6.4362 C   0  0  0  0  0  0  0  0  0  0  0  0
   -0.4291   13.4776   -6.3870 N   0  0  0  0  0  0  0  0  0  0  0  0
    0.1723   12.4029   -6.8190 N   0  0  0  0  0  0  0  0  0  0  0  0
   -0.8029   11.5945   -7.2007 C   0  0  0  0  0  0  0  0  0  0  0  0
    0.3904   14.5868   -5.9117 C   0  0  0  0  0  0  0  0  0  0  0  0
   -6.0966   12.3009   -9.8720 H   0  0  0  0  0  0  0  0  0  0  0  0
   -8.1900   10.1177  -13.8945 H   0  0  0  0  0  0  0  0  0  0  0  0
   -7.6841   12.5226  -13.5411 H   0  0  0  0  0  0  0  0  0  0  0  0
   -6.1868   11.5800  -13.8514 H   0  0  0  0  0  0  0  0  0  0  0  0
   -6.3254   10.0493  -10.7557 H   0  0  0  0  0  0  0  0  0  0  0  0
   -8.0374    9.6016   -7.2571 H   0  0  0  0  0  0  0  0  0  0  0  0
   -2.5387   14.5023  -10.9550 H   0  0  0  0  0  0  0  0  0  0  0  0
   -3.0724   14.8267  -12.6391 H   0  0  0  0  0  0  0  0  0  0  0  0
   -3.8811   15.6547  -11.2654 H   0  0  0  0  0  0  0  0  0  0  0  0
   -5.2461   15.2234  -12.9243 H   0  0  0  0  0  0  0  0  0  0  0  0
   -4.8927    8.7823   -8.4965 H   0  0  0  0  0  0  0  0  0  0  0  0
   -2.6613    9.7546   -8.0533 H   0  0  0  0  0  0  0  0  0  0  0  0
   -4.5126   13.2851   -6.4732 H   0  0  0  0  0  0  0  0  0  0  0  0
   -6.7407   12.3097   -6.9056 H   0  0  0  0  0  0  0  0  0  0  0  0
   -2.4554   14.1894   -6.1228 H   0  0  0  0  0  0  0  0  0  0  0  0
   -0.6455   10.6177   -7.6337 H   0  0  0  0  0  0  0  0  0  0  0  0
    1.4543   14.3214   -5.9997 H   0  0  0  0  0  0  0  0  0  0  0  0
    0.1843   15.4810   -6.5183 H   0  0  0  0  0  0  0  0  0  0  0  0
    0.1504   14.7949   -4.8586 H   0  0  0  0  0  0  0  0  0  0  0  0
  1  2  2  0  0  0  0
  1  4  1  0  0  0  0
  1 13  1  0  0  0  0
  2  6  1  0  0  0  0
  3  4  1  0  0  0  0
  3  5  2  0  0  0  0
  5  6  1  0  0  0  0
  5  9  1  0  0  0  0
  6  7  1  0  0  0  0
  7  8  1  0  0  0  0
  7 10  2  3  0  0  0
  8  9  2  0  0  0  0
 10 15  1  0  0  0  0
 11 12  1  0  0  0  0
 11 13  2  0  0  0  0
 13 14  1  0  0  0  0
 15 16  2  0  0  0  0
 15 20  1  0  0  0  0
 16 17  1  0  0  0  0
 17 18  2  0  0  0  0
 18 19  1  0  0  0  0
 18 21  1  0  0  0  0
 19 20  2  0  0  0  0
 21 22  2  0  0  0  0
 21 25  1  0  0  0  0
 22 23  1  0  0  0  0
 23 24  1  0  0  0  0
 23 26  1  0  0  0  0
 24 25  2  0  0  0  0
  2 27  1  0  0  0  0
  3 28  1  0  0  0  0
  4 29  1  0  0  0  0
  4 30  1  0  0  0  0
  6 31  1  0  0  0  0
 10 32  1  0  0  0  0
 12 33  1  0  0  0  0
 12 34  1  0  0  0  0
 12 35  1  0  0  0  0
 14 36  1  0  0  0  0
 16 37  1  0  0  0  0
 17 38  1  0  0  0  0
 19 39  1  0  0  0  0
 20 40  1  0  0  0  0
 22 41  1  0  0  0  0
 25 42  1  0  0  0  0
 26 43  1  0  0  0  0
 26 44  1  0  0  0  0
 26 45  1  0  0  0  0
M  END
> <Name>
19

> <IC50[uM]>
0.015

$$$$
19
  -OEChem-05192314333D
 Structure written by MMmdl.
 45 48  0     0  0  0  0  0  0999 V2000
   -6.3863   12.3686  -12.0106 C   0  0  0  0  0  0  0  0  0  0  0  0
   -6.5303   11.8179  -10.7351 C   0  0  0  0  0  0  0  0  0  0  0  0
   -7.7274   10.5747  -13.0322 C   0  0  0  0  0  0  0  0  0  0  0  0
   -6.9939   11.7717  -13.1290 C   0  0  0  0  0  0  0  0  0  0  0  0
   -7.8233   10.0108  -11.7572 C   0  0  0  0  0  0  0  0  0  0  0  0
   -7.2504   10.6246  -10.6026 C   0  0  0  0  0  0  0  0  0  0  0  0
   -7.6148    9.7488   -9.5126 C   0  0  0  0  0  0  0  0  0  0  0  0
   -8.2772    8.7301   -9.9866 N   0  0  0  0  0  0  0  0  0  0  0  0
   -8.4133    8.8585  -11.2996 N   0  0  0  0  0  0  0  0  0  0  0  0
   -7.3367    9.8906   -8.0265 C   0  0  0  0  0  0  0  0  0  0  0  0
   -4.3739   13.6178  -11.5022 N   0  0  0  0  0  0  0  0  0  0  0  0
   -3.4056   14.7196  -11.5963 C   0  0  0  0  0  0  0  0  0  0  0  0
   -5.5407   13.6198  -12.1903 C   0  0  0  0  0  0  0  0  0  0  0  0
   -5.8948   14.5296  -12.9394 O   0  0  0  0  0  0  0  0  0  0  0  0
   -5.9610   10.4852   -7.7361 C   0  0  0  0  0  0  0  0  0  0  0  0
   -4.8098    9.7648   -8.0558 C   0  0  0  0  0  0  0  0  0  0  0  0
   -3.5520   10.3132   -7.8064 C   0  0  0  0  0  0  0  0  0  0  0  0
   -3.4430   11.5871   -7.2363 C   0  0  0  0  0  0  0  0  0  0  0  0
   -4.5944   12.3027   -6.9144 C   0  0  0  0  0  0  0  0  0  0  0  0
   -5.8504   11.7539   -7.1603 C   0  0  0  0  0  0  0  0  0  0  0  0
   -2.0991   12.1752   -6.9687 C   0  0  0  0  0  0  0  0  0  0  0  0
   -1.7663   13.4191   -6.4362 C   0  0  0  0  0  0  0  0  0  0  0  0
   -0.4291   13.4776   -6.3870 N   0  0  0  0  0  0  0  0  0  0  0  0
    0.1723   12.4029   -6.8190 N   0  0  0  0  0  0  0  0  0  0  0  0
   -0.8029   11.5945   -7.2007 C   0  0  0  0  0  0  0  0  0  0  0  0
    0.3904   14.5868   -5.9117 C   0  0  0  0  0  0  0  0  0  0  0  0
   -6.0966   12.3009   -9.8720 H   0  0  0  0  0  0  0  0  0  0  0  0
   -8.7487   10.7774  -13.3871 H   0  0  0  0  0  0  0  0  0  0  0  0
   -7.2503    9.8346  -13.6914 H   0  0  0  0  0  0  0  0  0  0  0  0
   -7.6841   12.5226  -13.5411 H   0  0  0  0  0  0  0  0  0  0  0  0
   -6.1868   11.5800  -13.8514 H   0  0  0  0  0  0  0  0  0  0  0  0
   -8.0374    9.6016   -7.2571 H   0  0  0  0  0  0  0  0  0  0  0  0
   -2.5387   14.5023  -10.9550 H   0  0  0  0  0  0  0  0  0  0  0  0
   -3.0724   14.8267  -12.6391 H   0  0  0  0  0  0  0  0  0  0  0  0
   -3.8811   15.6547  -11.2654 H   0  0  0  0  0  0  0  0  0  0  0  0
   -5.2461   15.2234  -12.9243 H   0  0  0  0  0  0  0  0  0  0  0  0
   -4.8927    8.7823   -8.4965 H   0  0  0  0  0  0  0  0  0  0  0  0
   -2.6613    9.7546   -8.0533 H   0  0  0  0  0  0  0  0  0  0  0  0
   -4.5126   13.2851   -6.4732 H   0  0  0  0  0  0  0  0  0  0  0  0
   -6.7407   12.3097   -6.9056 H   0  0  0  0  0  0  0  0  0  0  0  0
   -2.4554   14.1894   -6.1228 H   0  0  0  0  0  0  0  0  0  0  0  0
   -0.6455   10.6177   -7.6337 H   0  0  0  0  0  0  0  0  0  0  0  0
    1.4543   14.3214   -5.9997 H   0  0  0  0  0  0  0  0  0  0  0  0
    0.1843   15.4810   -6.5183 H   0  0  0  0  0  0  0  0  0  0  0  0
    0.1504   14.7949   -4.8586 H   0  0  0  0  0  0  0  0  0  0  0  0
  1  2  2  0  0  0  0
  1  4  1  0  0  0  0
  1 13  1  0  0  0  0
  2  6  1  0  0  0  0
  3  4  1  0  0  0  0
  3  5  1  0  0  0  0
  5  6  2  0  0  0  0
  5  9  1  0  0  0  0
  6  7  1  0  0  0  0
  7  8  1  0  0  0  0
  7 10  2  3  0  0  0
  8  9  2  0  0  0  0
 10 15  1  0  0  0  0
 11 12  1  0  0  0  0
 11 13  2  0  0  0  0
 13 14  1  0  0  0  0
 15 16  2  0  0  0  0
 15 20  1  0  0  0  0
 16 17  1  0  0  0  0
 17 18  2  0  0  0  0
 18 19  1  0  0  0  0
 18 21  1  0  0  0  0
 19 20  2  0  0  0  0
 21 22  2  0  0  0  0
 21 25  1  0  0  0  0
 22 23  1  0  0  0  0
 23 24  1  0  0  0  0
 23 26  1  0  0  0  0
 24 25  2  0  0  0  0
  2 27  1  0  0  0  0
  3 28  1  0  0  0  0
  3 29  1  0  0  0  0
  4 30  1  0  0  0  0
  4 31  1  0  0  0  0
 10 32  1  0  0  0  0
 12 33  1  0  0  0  0
 12 34  1  0  0  0  0
 12 35  1  0  0  0  0
 14 36  1  0  0  0  0
 16 37  1  0  0  0  0
 17 38  1  0  0  0  0
 19 39  1  0  0  0  0
 20 40  1  0  0  0  0
 22 41  1  0  0  0  0
 25 42  1  0  0  0  0
 26 43  1  0  0  0  0
 26 44  1  0  0  0  0
 26 45  1  0  0  0  0
M  END
> <Name>
19

> <IC50[uM]>
0.015

$$$$
19
  -OEChem-05192314333D
 Structure written by MMmdl.
 45 48  0     1  0  0  0  0  0999 V2000
   -6.3863   12.3686  -12.0106 C   0  0  0  0  0  0  0  0  0  0  0  0
   -6.5303   11.8179  -10.7351 C   0  0  0  0  0  0  0  0  0  0  0  0
   -7.7274   10.5747  -13.0322 C   0  0  0  0  0  0  0  0  0  0  0  0
   -6.9939   11.7717  -13.1290 C   0  0  0  0  0  0  0  0  0  0  0  0
   -7.8233   10.0108  -11.7572 C   0  0  0  0  0  0  0  0  0  0  0  0
   -7.2504   10.6246  -10.6026 C   0  0  0  0  0  0  0  0  0  0  0  0
   -7.6148    9.7488   -9.5126 C   0  0  0  0  0  0  0  0  0  0  0  0
   -8.2772    8.7301   -9.9866 N   0  0  0  0  0  0  0  0  0  0  0  0
   -8.4133    8.8585  -11.2996 N   0  0  0  0  0  0  0  0  0  0  0  0
   -7.3367    9.8906   -8.0265 C   0  0  0  0  0  0  0  0  0  0  0  0
   -4.3739   13.6178  -11.5022 N   0  0  0  0  0  0  0  0  0  0  0  0
   -3.4056   14.7196  -11.5963 C   0  0  0  0  0  0  0  0  0  0  0  0
   -5.5407   13.6198  -12.1903 C   0  0  0  0  0  0  0  0  0  0  0  0
   -5.8948   14.5296  -12.9394 O   0  0  0  0  0  0  0  0  0  0  0  0
   -5.9610   10.4852   -7.7361 C   0  0  3  0  0  0  0  0  0  0  0  0
   -4.8098    9.7648   -8.0558 C   0  0  0  0  0  0  0  0  0  0  0  0
   -3.5520   10.3132   -7.8064 C   0  0  0  0  0  0  0  0  0  0  0  0
   -3.4430   11.5871   -7.2363 C   0  0  0  0  0  0  0  0  0  0  0  0
   -4.5944   12.3027   -6.9144 C   0  0  0  0  0  0  0  0  0  0  0  0
   -5.8504   11.7539   -7.1603 C   0  0  0  0  0  0  0  0  0  0  0  0
   -2.0991   12.1752   -6.9687 C   0  0  0  0  0  0  0  0  0  0  0  0
   -1.7663   13.4191   -6.4362 C   0  0  0  0  0  0  0  0  0  0  0  0
   -0.4291   13.4776   -6.3870 N   0  0  0  0  0  0  0  0  0  0  0  0
    0.1723   12.4029   -6.8190 N   0  0  0  0  0  0  0  0  0  0  0  0
   -0.8029   11.5945   -7.2007 C   0  0  0  0  0  0  0  0  0  0  0  0
    0.3904   14.5868   -5.9117 C   0  0  0  0  0  0  0  0  0  0  0  0
   -6.0966   12.3009   -9.8720 H   0  0  0  0  0  0  0  0  0  0  0  0
   -8.1900   10.1177  -13.8945 H   0  0  0  0  0  0  0  0  0  0  0  0
   -6.8945   12.2471  -14.0936 H   0  0  0  0  0  0  0  0  0  0  0  0
   -8.0374    9.6016   -7.2571 H   0  0  0  0  0  0  0  0  0  0  0  0
   -2.5387   14.5023  -10.9550 H   0  0  0  0  0  0  0  0  0  0  0  0
   -3.0724   14.8267  -12.6391 H   0  0  0  0  0  0  0  0  0  0  0  0
   -3.8811   15.6547  -11.2654 H   0  0  0  0  0  0  0  0  0  0  0  0
   -5.2461   15.2234  -12.9243 H   0  0  0  0  0  0  0  0  0  0  0  0
   -5.9721   10.0288   -6.7353 H   0  0  0  0  0  0  0  0  0  0  0  0
   -4.8927    8.7823   -8.4965 H   0  0  0  0  0  0  0  0  0  0  0  0
   -2.6613    9.7546   -8.0533 H   0  0  0  0  0  0  0  0  0  0  0  0
   -4.5126   13.2851   -6.4732 H   0  0  0  0  0  0  0  0  0  0  0  0
   -6.3761   12.4521   -7.8283 H   0  0  0  0  0  0  0  0  0  0  0  0
   -6.3718   11.7094   -6.1927 H   0  0  0  0  0  0  0  0  0  0  0  0
   -2.4554   14.1894   -6.1228 H   0  0  0  0  0  0  0  0  0  0  0  0
   -0.6455   10.6177   -7.6337 H   0  0  0  0  0  0  0  0  0  0  0  0
    1.4543   14.3214   -5.9997 H   0  0  0  0  0  0  0  0  0  0  0  0
    0.1843   15.4810   -6.5183 H   0  0  0  0  0  0  0  0  0  0  0  0
    0.1504   14.7949   -4.8586 H   0  0  0  0  0  0  0  0  0  0  0  0
  1  2  2  0  0  0  0
  1  4  1  0  0  0  0
  1 13  1  0  0  0  0
  2  6  1  0  0  0  0
  3  4  2  0  0  0  0
  3  5  1  0  0  0  0
  5  6  2  0  0  0  0
  5  9  1  0  0  0  0
  6  7  1  0  0  0  0
  7  8  1  0  0  0  0
  7 10  2  3  0  0  0
  8  9  2  0  0  0  0
 10 15  1  0  0  0  0
 11 12  1  0  0  0  0
 11 13  2  0  0  0  0
 13 14  1  0  0  0  0
 15 16  1  0  0  0  0
 15 20  1  0  0  0  0
 16 17  2  0  0  0  0
 17 18  1  0  0  0  0
 18 19  2  0  0  0  0
 18 21  1  0  0  0  0
 19 20  1  0  0  0  0
 21 22  2  0  0  0  0
 21 25  1  0  0  0  0
 22 23  1  0  0  0  0
 23 24  1  0  0  0  0
 23 26  1  0  0  0  0
 24 25  2  0  0  0  0
  2 27  1  0  0  0  0
  3 28  1  0  0  0  0
  4 29  1  0  0  0  0
 10 30  1  0  0  0  0
 12 31  1  0  0  0  0
 12 32  1  0  0  0  0
 12 33  1  0  0  0  0
 14 34  1  0  0  0  0
 15 35  1  0  0  0  0
 16 36  1  0  0  0  0
 17 37  1  0  0  0  0
 19 38  1  0  0  0  0
 20 39  1  0  0  0  0
 20 40  1  0  0  0  0
 22 41  1  0  0  0  0
 25 42  1  0  0  0  0
 26 43  1  0  0  0  0
 26 44  1  0  0  0  0
 26 45  1  0  0  0  0
M  END
> <Name>
19

> <IC50[uM]>
0.015

$$$$
19
  -OEChem-05192314333D
 Structure written by MMmdl.
 45 48  0     1  0  0  0  0  0999 V2000
   -6.3863   12.3686  -12.0106 C   0  0  0  0  0  0  0  0  0  0  0  0
   -6.5303   11.8179  -10.7351 C   0  0  0  0  0  0  0  0  0  0  0  0
   -7.7274   10.5747  -13.0322 C   0  0  0  0  0  0  0  0  0  0  0  0
   -6.9939   11.7717  -13.1290 C   0  0  0  0  0  0  0  0  0  0  0  0
   -7.8233   10.0108  -11.7572 C   0  0  0  0  0  0  0  0  0  0  0  0
   -7.2504   10.6246  -10.6026 C   0  0  0  0  0  0  0  0  0  0  0  0
   -7.6148    9.7488   -9.5126 C   0  0  3  0  0  0  0  0  0  0  0  0
   -8.2772    8.7301   -9.9866 N   0  0  0  0  0  0  0  0  0  0  0  0
   -8.4133    8.8585  -11.2996 N   0  0  0  0  0  0  0  0  0  0  0  0
   -7.3367    9.8906   -8.0265 C   0  0  0  0  0  0  0  0  0  0  0  0
   -4.3739   13.6178  -11.5022 N   0  0  0  0  0  0  0  0  0  0  0  0
   -3.4056   14.7196  -11.5963 C   0  0  0  0  0  0  0  0  0  0  0  0
   -5.5407   13.6198  -12.1903 C   0  0  0  0  0  0  0  0  0  0  0  0
   -5.8948   14.5296  -12.9394 O   0  0  0  0  0  0  0  0  0  0  0  0
   -5.9610   10.4852   -7.7361 C   0  0  0  0  0  0  0  0  0  0  0  0
   -4.8098    9.7648   -8.0558 C   0  0  0  0  0  0  0  0  0  0  0  0
   -3.5520   10.3132   -7.8064 C   0  0  0  0  0  0  0  0  0  0  0  0
   -3.4430   11.5871   -7.2363 C   0  0  0  0  0  0  0  0  0  0  0  0
   -4.5944   12.3027   -6.9144 C   0  0  0  0  0  0  0  0  0  0  0  0
   -5.8504   11.7539   -7.1603 C   0  0  0  0  0  0  0  0  0  0  0  0
   -2.0991   12.1752   -6.9687 C   0  0  0  0  0  0  0  0  0  0  0  0
   -1.7663   13.4191   -6.4362 C   0  0  0  0  0  0  0  0  0  0  0  0
   -0.4291   13.4776   -6.3870 N   0  0  0  0  0  0  0  0  0  0  0  0
    0.1723   12.4029   -6.8190 N   0  0  0  0  0  0  0  0  0  0  0  0
   -0.8029   11.5945   -7.2007 C   0  0  0  0  0  0  0  0  0  0  0  0
    0.3904   14.5868   -5.9117 C   0  0  0  0  0  0  0  0  0  0  0  0
   -6.0966   12.3009   -9.8720 H   0  0  0  0  0  0  0  0  0  0  0  0
   -8.1900   10.1177  -13.8945 H   0  0  0  0  0  0  0  0  0  0  0  0
   -6.8945   12.2471  -14.0936 H   0  0  0  0  0  0  0  0  0  0  0  0
   -6.6717    9.1968   -9.6383 H   0  0  0  0  0  0  0  0  0  0  0  0
   -8.0374    9.6016   -7.2571 H   0  0  0  0  0  0  0  0  0  0  0  0
   -2.5387   14.5023  -10.9550 H   0  0  0  0  0  0  0  0  0  0  0  0
   -3.0724   14.8267  -12.6391 H   0  0  0  0  0  0  0  0  0  0  0  0
   -3.8811   15.6547  -11.2654 H   0  0  0  0  0  0  0  0  0  0  0  0
   -5.2461   15.2234  -12.9243 H   0  0  0  0  0  0  0  0  0  0  0  0
   -4.8927    8.7823   -8.4965 H   0  0  0  0  0  0  0  0  0  0  0  0
   -2.6613    9.7546   -8.0533 H   0  0  0  0  0  0  0  0  0  0  0  0
   -4.5126   13.2851   -6.4732 H   0  0  0  0  0  0  0  0  0  0  0  0
   -6.3761   12.4521   -7.8283 H   0  0  0  0  0  0  0  0  0  0  0  0
   -6.3718   11.7094   -6.1927 H   0  0  0  0  0  0  0  0  0  0  0  0
   -2.4554   14.1894   -6.1228 H   0  0  0  0  0  0  0  0  0  0  0  0
   -0.6455   10.6177   -7.6337 H   0  0  0  0  0  0  0  0  0  0  0  0
    1.4543   14.3214   -5.9997 H   0  0  0  0  0  0  0  0  0  0  0  0
    0.1843   15.4810   -6.5183 H   0  0  0  0  0  0  0  0  0  0  0  0
    0.1504   14.7949   -4.8586 H   0  0  0  0  0  0  0  0  0  0  0  0
  1  2  2  0  0  0  0
  1  4  1  0  0  0  0
  1 13  1  0  0  0  0
  2  6  1  0  0  0  0
  3  4  2  0  0  0  0
  3  5  1  0  0  0  0
  5  6  2  0  0  0  0
  5  9  1  0  0  0  0
  6  7  1  0  0  0  0
  7  8  1  0  0  0  0
  7 10  1  0  0  0  0
  8  9  2  0  0  0  0
 10 15  2  3  0  0  0
 11 12  1  0  0  0  0
 11 13  2  0  0  0  0
 13 14  1  0  0  0  0
 15 16  1  0  0  0  0
 15 20  1  0  0  0  0
 16 17  2  0  0  0  0
 17 18  1  0  0  0  0
 18 19  2  0  0  0  0
 18 21  1  0  0  0  0
 19 20  1  0  0  0  0
 21 22  2  0  0  0  0
 21 25  1  0  0  0  0
 22 23  1  0  0  0  0
 23 24  1  0  0  0  0
 23 26  1  0  0  0  0
 24 25  2  0  0  0  0
  2 27  1  0  0  0  0
  3 28  1  0  0  0  0
  4 29  1  0  0  0  0
  7 30  1  0  0  0  0
 10 31  1  0  0  0  0
 12 32  1  0  0  0  0
 12 33  1  0  0  0  0
 12 34  1  0  0  0  0
 14 35  1  0  0  0  0
 16 36  1  0  0  0  0
 17 37  1  0  0  0  0
 19 38  1  0  0  0  0
 20 39  1  0  0  0  0
 20 40  1  0  0  0  0
 22 41  1  0  0  0  0
 25 42  1  0  0  0  0
 26 43  1  0  0  0  0
 26 44  1  0  0  0  0
 26 45  1  0  0  0  0
M  END
> <Name>
19

> <IC50[uM]>
0.015

$$$$
19
  -OEChem-05192314333D
 Structure written by MMmdl.
 45 48  0     0  0  0  0  0  0999 V2000
   -6.3863   12.3686  -12.0106 C   0  0  0  0  0  0  0  0  0  0  0  0
   -6.5303   11.8179  -10.7351 C   0  0  0  0  0  0  0  0  0  0  0  0
   -7.7274   10.5747  -13.0322 C   0  0  0  0  0  0  0  0  0  0  0  0
   -6.9939   11.7717  -13.1290 C   0  0  0  0  0  0  0  0  0  0  0  0
   -7.8233   10.0108  -11.7572 C   0  0  0  0  0  0  0  0  0  0  0  0
   -7.2504   10.6246  -10.6026 C   0  0  0  0  0  0  0  0  0  0  0  0
   -7.6148    9.7488   -9.5126 C   0  0  0  0  0  0  0  0  0  0  0  0
   -8.2772    8.7301   -9.9866 N   0  0  0  0  0  0  0  0  0  0  0  0
   -8.4133    8.8585  -11.2996 N   0  0  0  0  0  0  0  0  0  0  0  0
   -7.3367    9.8906   -8.0265 C   0  0  0  0  0  0  0  0  0  0  0  0
   -4.3739   13.6178  -11.5022 N   0  0  0  0  0  0  0  0  0  0  0  0
   -3.4056   14.7196  -11.5963 C   0  0  0  0  0  0  0  0  0  0  0  0
   -5.5407   13.6198  -12.1903 C   0  0  0  0  0  0  0  0  0  0  0  0
   -5.8948   14.5296  -12.9394 O   0  0  0  0  0  0  0  0  0  0  0  0
   -5.9610   10.4852   -7.7361 C   0  0  0  0  0  0  0  0  0  0  0  0
   -4.8098    9.7648   -8.0558 C   0  0  0  0  0  0  0  0  0  0  0  0
   -3.5520   10.3132   -7.8064 C   0  0  0  0  0  0  0  0  0  0  0  0
   -3.4430   11.5871   -7.2363 C   0  0  0  0  0  0  0  0  0  0  0  0
   -4.5944   12.3027   -6.9144 C   0  0  0  0  0  0  0  0  0  0  0  0
   -5.8504   11.7539   -7.1603 C   0  0  0  0  0  0  0  0  0  0  0  0
   -2.0991   12.1752   -6.9687 C   0  0  0  0  0  0  0  0  0  0  0  0
   -1.7663   13.4191   -6.4362 C   0  0  0  0  0  0  0  0  0  0  0  0
   -0.4291   13.4776   -6.3870 N   0  0  0  0  0  0  0  0  0  0  0  0
    0.1723   12.4029   -6.8190 N   0  0  0  0  0  0  0  0  0  0  0  0
   -0.8029   11.5945   -7.2007 C   0  0  0  0  0  0  0  0  0  0  0  0
    0.3904   14.5868   -5.9117 C   0  0  0  0  0  0  0  0  0  0  0  0
   -6.0966   12.3009   -9.8720 H   0  0  0  0  0  0  0  0  0  0  0  0
   -8.1900   10.1177  -13.8945 H   0  0  0  0  0  0  0  0  0  0  0  0
   -6.8945   12.2471  -14.0936 H   0  0  0  0  0  0  0  0  0  0  0  0
   -8.0374    9.6016   -7.2571 H   0  0  0  0  0  0  0  0  0  0  0  0
   -2.5387   14.5023  -10.9550 H   0  0  0  0  0  0  0  0  0  0  0  0
   -3.0724   14.8267  -12.6391 H   0  0  0  0  0  0  0  0  0  0  0  0
   -3.8811   15.6547  -11.2654 H   0  0  0  0  0  0  0  0  0  0  0  0
   -5.2461   15.2234  -12.9243 H   0  0  0  0  0  0  0  0  0  0  0  0
   -4.8927    8.7823   -8.4965 H   0  0  0  0  0  0  0  0  0  0  0  0
   -3.0309    9.6180   -7.1317 H   0  0  0  0  0  0  0  0  0  0  0  0
   -3.0255   10.3514   -8.7715 H   0  0  0  0  0  0  0  0  0  0  0  0
   -4.5126   13.2851   -6.4732 H   0  0  0  0  0  0  0  0  0  0  0  0
   -6.3761   12.4521   -7.8283 H   0  0  0  0  0  0  0  0  0  0  0  0
   -6.3718   11.7094   -6.1927 H   0  0  0  0  0  0  0  0  0  0  0  0
   -2.4554   14.1894   -6.1228 H   0  0  0  0  0  0  0  0  0  0  0  0
   -0.6455   10.6177   -7.6337 H   0  0  0  0  0  0  0  0  0  0  0  0
    1.4543   14.3214   -5.9997 H   0  0  0  0  0  0  0  0  0  0  0  0
    0.1843   15.4810   -6.5183 H   0  0  0  0  0  0  0  0  0  0  0  0
    0.1504   14.7949   -4.8586 H   0  0  0  0  0  0  0  0  0  0  0  0
  1  2  2  0  0  0  0
  1  4  1  0  0  0  0
  1 13  1  0  0  0  0
  2  6  1  0  0  0  0
  3  4  2  0  0  0  0
  3  5  1  0  0  0  0
  5  6  2  0  0  0  0
  5  9  1  0  0  0  0
  6  7  1  0  0  0  0
  7  8  1  0  0  0  0
  7 10  2  3  0  0  0
  8  9  2  0  0  0  0
 10 15  1  0  0  0  0
 11 12  1  0  0  0  0
 11 13  2  0  0  0  0
 13 14  1  0  0  0  0
 15 16  2  0  0  0  0
 15 20  1  0  0  0  0
 16 17  1  0  0  0  0
 17 18  1  0  0  0  0
 18 19  2  0  0  0  0
 18 21  1  0  0  0  0
 19 20  1  0  0  0  0
 21 22  2  0  0  0  0
 21 25  1  0  0  0  0
 22 23  1  0  0  0  0
 23 24  1  0  0  0  0
 23 26  1  0  0  0  0
 24 25  2  0  0  0  0
  2 27  1  0  0  0  0
  3 28  1  0  0  0  0
  4 29  1  0  0  0  0
 10 30  1  0  0  0  0
 12 31  1  0  0  0  0
 12 32  1  0  0  0  0
 12 33  1  0  0  0  0
 14 34  1  0  0  0  0
 16 35  1  0  0  0  0
 17 36  1  0  0  0  0
 17 37  1  0  0  0  0
 19 38  1  0  0  0  0
 20 39  1  0  0  0  0
 20 40  1  0  0  0  0
 22 41  1  0  0  0  0
 25 42  1  0  0  0  0
 26 43  1  0  0  0  0
 26 44  1  0  0  0  0
 26 45  1  0  0  0  0
M  END
> <Name>
19

> <IC50[uM]>
0.015

$$$$
19
  -OEChem-05192314333D
 Structure written by MMmdl.
 45 48  0     0  0  0  0  0  0999 V2000
   -6.3863   12.3686  -12.0106 C   0  0  0  0  0  0  0  0  0  0  0  0
   -6.5303   11.8179  -10.7351 C   0  0  0  0  0  0  0  0  0  0  0  0
   -7.7274   10.5747  -13.0322 C   0  0  0  0  0  0  0  0  0  0  0  0
   -6.9939   11.7717  -13.1290 C   0  0  0  0  0  0  0  0  0  0  0  0
   -7.8233   10.0108  -11.7572 C   0  0  0  0  0  0  0  0  0  0  0  0
   -7.2504   10.6246  -10.6026 C   0  0  0  0  0  0  0  0  0  0  0  0
   -7.6148    9.7488   -9.5126 C   0  0  0  0  0  0  0  0  0  0  0  0
   -8.2772    8.7301   -9.9866 N   0  0  0  0  0  0  0  0  0  0  0  0
   -8.4133    8.8585  -11.2996 N   0  0  0  0  0  0  0  0  0  0  0  0
   -7.3367    9.8906   -8.0265 C   0  0  0  0  0  0  0  0  0  0  0  0
   -4.3739   13.6178  -11.5022 N   0  0  0  0  0  0  0  0  0  0  0  0
   -3.4056   14.7196  -11.5963 C   0  0  0  0  0  0  0  0  0  0  0  0
   -5.5407   13.6198  -12.1903 C   0  0  0  0  0  0  0  0  0  0  0  0
   -5.8948   14.5296  -12.9394 O   0  0  0  0  0  0  0  0  0  0  0  0
   -5.9610   10.4852   -7.7361 C   0  0  0  0  0  0  0  0  0  0  0  0
   -4.8098    9.7648   -8.0558 C   0  0  0  0  0  0  0  0  0  0  0  0
   -3.5520   10.3132   -7.8064 C   0  0  0  0  0  0  0  0  0  0  0  0
   -3.4430   11.5871   -7.2363 C   0  0  0  0  0  0  0  0  0  0  0  0
   -4.5944   12.3027   -6.9144 C   0  0  0  0  0  0  0  0  0  0  0  0
   -5.8504   11.7539   -7.1603 C   0  0  0  0  0  0  0  0  0  0  0  0
   -2.0991   12.1752   -6.9687 C   0  0  0  0  0  0  0  0  0  0  0  0
   -1.7663   13.4191   -6.4362 C   0  0  0  0  0  0  0  0  0  0  0  0
   -0.4291   13.4776   -6.3870 N   0  0  0  0  0  0  0  0  0  0  0  0
    0.1723   12.4029   -6.8190 N   0  0  0  0  0  0  0  0  0  0  0  0
   -0.8029   11.5945   -7.2007 C   0  0  0  0  0  0  0  0  0  0  0  0
    0.3904   14.5868   -5.9117 C   0  0  0  0  0  0  0  0  0  0  0  0
   -6.0966   12.3009   -9.8720 H   0  0  0  0  0  0  0  0  0  0  0  0
   -8.1900   10.1177  -13.8945 H   0  0  0  0  0  0  0  0  0  0  0  0
   -6.8945   12.2471  -14.0936 H   0  0  0  0  0  0  0  0  0  0  0  0
   -8.0374    9.6016   -7.2571 H   0  0  0  0  0  0  0  0  0  0  0  0
   -2.5387   14.5023  -10.9550 H   0  0  0  0  0  0  0  0  0  0  0  0
   -3.0724   14.8267  -12.6391 H   0  0  0  0  0  0  0  0  0  0  0  0
   -3.8811   15.6547  -11.2654 H   0  0  0  0  0  0  0  0  0  0  0  0
   -5.2461   15.2234  -12.9243 H   0  0  0  0  0  0  0  0  0  0  0  0
   -4.8927    8.7823   -8.4965 H   0  0  0  0  0  0  0  0  0  0  0  0
   -2.6613    9.7546   -8.0533 H   0  0  0  0  0  0  0  0  0  0  0  0
   -4.5459   12.5124   -5.8357 H   0  0  0  0  0  0  0  0  0  0  0  0
   -4.5467   13.2483   -7.4743 H   0  0  0  0  0  0  0  0  0  0  0  0
   -6.3761   12.4521   -7.8283 H   0  0  0  0  0  0  0  0  0  0  0  0
   -6.3718   11.7094   -6.1927 H   0  0  0  0  0  0  0  0  0  0  0  0
   -2.4554   14.1894   -6.1228 H   0  0  0  0  0  0  0  0  0  0  0  0
   -0.6455   10.6177   -7.6337 H   0  0  0  0  0  0  0  0  0  0  0  0
    1.4543   14.3214   -5.9997 H   0  0  0  0  0  0  0  0  0  0  0  0
    0.1843   15.4810   -6.5183 H   0  0  0  0  0  0  0  0  0  0  0  0
    0.1504   14.7949   -4.8586 H   0  0  0  0  0  0  0  0  0  0  0  0
  1  2  2  0  0  0  0
  1  4  1  0  0  0  0
  1 13  1  0  0  0  0
  2  6  1  0  0  0  0
  3  4  2  0  0  0  0
  3  5  1  0  0  0  0
  5  6  2  0  0  0  0
  5  9  1  0  0  0  0
  6  7  1  0  0  0  0
  7  8  1  0  0  0  0
  7 10  2  3  0  0  0
  8  9  2  0  0  0  0
 10 15  1  0  0  0  0
 11 12  1  0  0  0  0
 11 13  2  0  0  0  0
 13 14  1  0  0  0  0
 15 16  2  0  0  0  0
 15 20  1  0  0  0  0
 16 17  1  0  0  0  0
 17 18  2  0  0  0  0
 18 19  1  0  0  0  0
 18 21  1  0  0  0  0
 19 20  1  0  0  0  0
 21 22  2  0  0  0  0
 21 25  1  0  0  0  0
 22 23  1  0  0  0  0
 23 24  1  0  0  0  0
 23 26  1  0  0  0  0
 24 25  2  0  0  0  0
  2 27  1  0  0  0  0
  3 28  1  0  0  0  0
  4 29  1  0  0  0  0
 10 30  1  0  0  0  0
 12 31  1  0  0  0  0
 12 32  1  0  0  0  0
 12 33  1  0  0  0  0
 14 34  1  0  0  0  0
 16 35  1  0  0  0  0
 17 36  1  0  0  0  0
 19 37  1  0  0  0  0
 19 38  1  0  0  0  0
 20 39  1  0  0  0  0
 20 40  1  0  0  0  0
 22 41  1  0  0  0  0
 25 42  1  0  0  0  0
 26 43  1  0  0  0  0
 26 44  1  0  0  0  0
 26 45  1  0  0  0  0
M  END
> <Name>
19

> <IC50[uM]>
0.015

$$$$
19
  -OEChem-05192314333D
 Structure written by MMmdl.
 45 48  0     1  0  0  0  0  0999 V2000
   -6.3863   12.3686  -12.0106 C   0  0  3  0  0  0  0  0  0  0  0  0
   -6.5303   11.8179  -10.7351 C   0  0  0  0  0  0  0  0  0  0  0  0
   -7.7274   10.5747  -13.0322 C   0  0  0  0  0  0  0  0  0  0  0  0
   -6.9939   11.7717  -13.1290 C   0  0  0  0  0  0  0  0  0  0  0  0
   -7.8233   10.0108  -11.7572 C   0  0  0  0  0  0  0  0  0  0  0  0
   -7.2504   10.6246  -10.6026 C   0  0  0  0  0  0  0  0  0  0  0  0
   -7.6148    9.7488   -9.5126 C   0  0  0  0  0  0  0  0  0  0  0  0
   -8.2772    8.7301   -9.9866 N   0  0  0  0  0  0  0  0  0  0  0  0
   -8.4133    8.8585  -11.2996 N   0  0  0  0  0  0  0  0  0  0  0  0
   -7.3367    9.8906   -8.0265 C   0  0  0  0  0  0  0  0  0  0  0  0
   -4.3739   13.6178  -11.5022 N   0  0  0  0  0  0  0  0  0  0  0  0
   -3.4056   14.7196  -11.5963 C   0  0  0  0  0  0  0  0  0  0  0  0
   -5.5407   13.6198  -12.1903 C   0  0  0  0  0  0  0  0  0  0  0  0
   -5.8948   14.5296  -12.9394 O   0  0  0  0  0  0  0  0  0  0  0  0
   -5.9610   10.4852   -7.7361 C   0  0  0  0  0  0  0  0  0  0  0  0
   -4.8098    9.7648   -8.0558 C   0  0  0  0  0  0  0  0  0  0  0  0
   -3.5520   10.3132   -7.8064 C   0  0  0  0  0  0  0  0  0  0  0  0
   -3.4430   11.5871   -7.2363 C   0  0  0  0  0  0  0  0  0  0  0  0
   -4.5944   12.3027   -6.9144 C   0  0  0  0  0  0  0  0  0  0  0  0
   -5.8504   11.7539   -7.1603 C   0  0  0  0  0  0  0  0  0  0  0  0
   -2.0991   12.1752   -6.9687 C   0  0  0  0  0  0  0  0  0  0  0  0
   -1.7663   13.4191   -6.4362 C   0  0  0  0  0  0  0  0  0  0  0  0
   -0.4291   13.4776   -6.3870 N   0  0  0  0  0  0  0  0  0  0  0  0
    0.1723   12.4029   -6.8190 N   0  0  0  0  0  0  0  0  0  0  0  0
   -0.8029   11.5945   -7.2007 C   0  0  0  0  0  0  0  0  0  0  0  0
    0.3904   14.5868   -5.9117 C   0  0  0  0  0  0  0  0  0  0  0  0
   -7.2799   12.9895  -11.8495 H   0  0  0  0  0  0  0  0  0  0  0  0
   -5.5187   11.6324  -10.3449 H   0  0  0  0  0  0  0  0  0  0  0  0
   -7.0319   12.5715  -10.1102 H   0  0  0  0  0  0  0  0  0  0  0  0
   -8.1900   10.1177  -13.8945 H   0  0  0  0  0  0  0  0  0  0  0  0
   -6.8945   12.2471  -14.0936 H   0  0  0  0  0  0  0  0  0  0  0  0
   -8.0374    9.6016   -7.2571 H   0  0  0  0  0  0  0  0  0  0  0  0
   -2.5387   14.5023  -10.9550 H   0  0  0  0  0  0  0  0  0  0  0  0
   -3.0724   14.8267  -12.6391 H   0  0  0  0  0  0  0  0  0  0  0  0
   -3.8811   15.6547  -11.2654 H   0  0  0  0  0  0  0  0  0  0  0  0
   -5.2461   15.2234  -12.9243 H   0  0  0  0  0  0  0  0  0  0  0  0
   -4.8927    8.7823   -8.4965 H   0  0  0  0  0  0  0  0  0  0  0  0
   -2.6613    9.7546   -8.0533 H   0  0  0  0  0  0  0  0  0  0  0  0
   -4.5126   13.2851   -6.4732 H   0  0  0  0  0  0  0  0  0  0  0  0
   -6.7407   12.3097   -6.9056 H   0  0  0  0  0  0  0  0  0  0  0  0
   -2.4554   14.1894   -6.1228 H   0  0  0  0  0  0  0  0  0  0  0  0
   -0.6455   10.6177   -7.6337 H   0  0  0  0  0  0  0  0  0  0  0  0
    1.4543   14.3214   -5.9997 H   0  0  0  0  0  0  0  0  0  0  0  0
    0.1843   15.4810   -6.5183 H   0  0  0  0  0  0  0  0  0  0  0  0
    0.1504   14.7949   -4.8586 H   0  0  0  0  0  0  0  0  0  0  0  0
  1  2  1  0  0  0  0
  1  4  1  0  0  0  0
  1 13  1  0  0  0  0
  2  6  1  0  0  0  0
  3  4  2  0  0  0  0
  3  5  1  0  0  0  0
  5  6  2  0  0  0  0
  5  9  1  0  0  0  0
  6  7  1  0  0  0  0
  7  8  1  0  0  0  0
  7 10  2  3  0  0  0
  8  9  2  0  0  0  0
 10 15  1  0  0  0  0
 11 12  1  0  0  0  0
 11 13  2  0  0  0  0
 13 14  1  0  0  0  0
 15 16  2  0  0  0  0
 15 20  1  0  0  0  0
 16 17  1  0  0  0  0
 17 18  2  0  0  0  0
 18 19  1  0  0  0  0
 18 21  1  0  0  0  0
 19 20  2  0  0  0  0
 21 22  2  0  0  0  0
 21 25  1  0  0  0  0
 22 23  1  0  0  0  0
 23 24  1  0  0  0  0
 23 26  1  0  0  0  0
 24 25  2  0  0  0  0
  1 27  1  0  0  0  0
  2 28  1  0  0  0  0
  2 29  1  0  0  0  0
  3 30  1  0  0  0  0
  4 31  1  0  0  0  0
 10 32  1  0  0  0  0
 12 33  1  0  0  0  0
 12 34  1  0  0  0  0
 12 35  1  0  0  0  0
 14 36  1  0  0  0  0
 16 37  1  0  0  0  0
 17 38  1  0  0  0  0
 19 39  1  0  0  0  0
 20 40  1  0  0  0  0
 22 41  1  0  0  0  0
 25 42  1  0  0  0  0
 26 43  1  0  0  0  0
 26 44  1  0  0  0  0
 26 45  1  0  0  0  0
M  END
> <Name>
19

> <IC50[uM]>
0.015

$$$$
19
  -OEChem-05192314333D
 Structure written by MMmdl.
 45 48  0     1  0  0  0  0  0999 V2000
   -6.3863   12.3686  -12.0106 C   0  0  0  0  0  0  0  0  0  0  0  0
   -6.5303   11.8179  -10.7351 C   0  0  0  0  0  0  0  0  0  0  0  0
   -7.7274   10.5747  -13.0322 C   0  0  0  0  0  0  0  0  0  0  0  0
   -6.9939   11.7717  -13.1290 C   0  0  0  0  0  0  0  0  0  0  0  0
   -7.8233   10.0108  -11.7572 C   0  0  0  0  0  0  0  0  0  0  0  0
   -7.2504   10.6246  -10.6026 C   0  0  3  0  0  0  0  0  0  0  0  0
   -7.6148    9.7488   -9.5126 C   0  0  0  0  0  0  0  0  0  0  0  0
   -8.2772    8.7301   -9.9866 N   0  0  0  0  0  0  0  0  0  0  0  0
   -8.4133    8.8585  -11.2996 N   0  0  0  0  0  0  0  0  0  0  0  0
   -7.3367    9.8906   -8.0265 C   0  0  0  0  0  0  0  0  0  0  0  0
   -4.3739   13.6178  -11.5022 N   0  0  0  0  0  0  0  0  0  0  0  0
   -3.4056   14.7196  -11.5963 C   0  0  0  0  0  0  0  0  0  0  0  0
   -5.5407   13.6198  -12.1903 C   0  0  0  0  0  0  0  0  0  0  0  0
   -5.8948   14.5296  -12.9394 O   0  0  0  0  0  0  0  0  0  0  0  0
   -5.9610   10.4852   -7.7361 C   0  0  0  0  0  0  0  0  0  0  0  0
   -4.8098    9.7648   -8.0558 C   0  0  0  0  0  0  0  0  0  0  0  0
   -3.5520   10.3132   -7.8064 C   0  0  0  0  0  0  0  0  0  0  0  0
   -3.4430   11.5871   -7.2363 C   0  0  0  0  0  0  0  0  0  0  0  0
   -4.5944   12.3027   -6.9144 C   0  0  0  0  0  0  0  0  0  0  0  0
   -5.8504   11.7539   -7.1603 C   0  0  0  0  0  0  0  0  0  0  0  0
   -2.0991   12.1752   -6.9687 C   0  0  0  0  0  0  0  0  0  0  0  0
   -1.7663   13.4191   -6.4362 C   0  0  0  0  0  0  0  0  0  0  0  0
   -0.4291   13.4776   -6.3870 N   0  0  0  0  0  0  0  0  0  0  0  0
    0.1723   12.4029   -6.8190 N   0  0  0  0  0  0  0  0  0  0  0  0
   -0.8029   11.5945   -7.2007 C   0  0  0  0  0  0  0  0  0  0  0  0
    0.3904   14.5868   -5.9117 C   0  0  0  0  0  0  0  0  0  0  0  0
   -5.5187   11.6324  -10.3449 H   0  0  0  0  0  0  0  0  0  0  0  0
   -7.0319   12.5715  -10.1102 H   0  0  0  0  0  0  0  0  0  0  0  0
   -8.1900   10.1177  -13.8945 H   0  0  0  0  0  0  0  0  0  0  0  0
   -6.8945   12.2471  -14.0936 H   0  0  0  0  0  0  0  0  0  0  0  0
   -6.3254   10.0493  -10.7557 H   0  0  0  0  0  0  0  0  0  0  0  0
   -8.0374    9.6016   -7.2571 H   0  0  0  0  0  0  0  0  0  0  0  0
   -2.5387   14.5023  -10.9550 H   0  0  0  0  0  0  0  0  0  0  0  0
   -3.0724   14.8267  -12.6391 H   0  0  0  0  0  0  0  0  0  0  0  0
   -3.8811   15.6547  -11.2654 H   0  0  0  0  0  0  0  0  0  0  0  0
   -5.2461   15.2234  -12.9243 H   0  0  0  0  0  0  0  0  0  0  0  0
   -4.8927    8.7823   -8.4965 H   0  0  0  0  0  0  0  0  0  0  0  0
   -2.6613    9.7546   -8.0533 H   0  0  0  0  0  0  0  0  0  0  0  0
   -4.5126   13.2851   -6.4732 H   0  0  0  0  0  0  0  0  0  0  0  0
   -6.7407   12.3097   -6.9056 H   0  0  0  0  0  0  0  0  0  0  0  0
   -2.4554   14.1894   -6.1228 H   0  0  0  0  0  0  0  0  0  0  0  0
   -0.6455   10.6177   -7.6337 H   0  0  0  0  0  0  0  0  0  0  0  0
    1.4543   14.3214   -5.9997 H   0  0  0  0  0  0  0  0  0  0  0  0
    0.1843   15.4810   -6.5183 H   0  0  0  0  0  0  0  0  0  0  0  0
    0.1504   14.7949   -4.8586 H   0  0  0  0  0  0  0  0  0  0  0  0
  1  2  1  0  0  0  0
  1  4  2  0  0  0  0
  1 13  1  0  0  0  0
  2  6  1  0  0  0  0
  3  4  1  0  0  0  0
  3  5  2  0  0  0  0
  5  6  1  0  0  0  0
  5  9  1  0  0  0  0
  6  7  1  0  0  0  0
  7  8  1  0  0  0  0
  7 10  2  3  0  0  0
  8  9  2  0  0  0  0
 10 15  1  0  0  0  0
 11 12  1  0  0  0  0
 11 13  2  0  0  0  0
 13 14  1  0  0  0  0
 15 16  2  0  0  0  0
 15 20  1  0  0  0  0
 16 17  1  0  0  0  0
 17 18  2  0  0  0  0
 18 19  1  0  0  0  0
 18 21  1  0  0  0  0
 19 20  2  0  0  0  0
 21 22  2  0  0  0  0
 21 25  1  0  0  0  0
 22 23  1  0  0  0  0
 23 24  1  0  0  0  0
 23 26  1  0  0  0  0
 24 25  2  0  0  0  0
  2 27  1  0  0  0  0
  2 28  1  0  0  0  0
  3 29  1  0  0  0  0
  4 30  1  0  0  0  0
  6 31  1  0  0  0  0
 10 32  1  0  0  0  0
 12 33  1  0  0  0  0
 12 34  1  0  0  0  0
 12 35  1  0  0  0  0
 14 36  1  0  0  0  0
 16 37  1  0  0  0  0
 17 38  1  0  0  0  0
 19 39  1  0  0  0  0
 20 40  1  0  0  0  0
 22 41  1  0  0  0  0
 25 42  1  0  0  0  0
 26 43  1  0  0  0  0
 26 44  1  0  0  0  0
 26 45  1  0  0  0  0
M  END
> <Name>
19

> <IC50[uM]>
0.015

$$$$
19
  -OEChem-05192314333D
 Structure written by MMmdl.
 45 48  0     0  0  0  0  0  0999 V2000
   -6.3863   12.3686  -12.0106 C   0  0  0  0  0  0  0  0  0  0  0  0
   -6.5303   11.8179  -10.7351 C   0  0  0  0  0  0  0  0  0  0  0  0
   -7.7274   10.5747  -13.0322 C   0  0  0  0  0  0  0  0  0  0  0  0
   -6.9939   11.7717  -13.1290 C   0  0  0  0  0  0  0  0  0  0  0  0
   -7.8233   10.0108  -11.7572 C   0  0  0  0  0  0  0  0  0  0  0  0
   -7.2504   10.6246  -10.6026 C   0  0  0  0  0  0  0  0  0  0  0  0
   -7.6148    9.7488   -9.5126 C   0  0  0  0  0  0  0  0  0  0  0  0
   -8.2772    8.7301   -9.9866 N   0  0  0  0  0  0  0  0  0  0  0  0
   -8.4133    8.8585  -11.2996 N   0  0  0  0  0  0  0  0  0  0  0  0
   -7.3367    9.8906   -8.0265 C   0  0  0  0  0  0  0  0  0  0  0  0
   -4.3739   13.6178  -11.5022 N   0  0  0  0  0  0  0  0  0  0  0  0
   -3.4056   14.7196  -11.5963 C   0  0  0  0  0  0  0  0  0  0  0  0
   -5.5407   13.6198  -12.1903 C   0  0  0  0  0  0  0  0  0  0  0  0
   -5.8948   14.5296  -12.9394 O   0  0  0  0  0  0  0  0  0  0  0  0
   -5.9610   10.4852   -7.7361 C   0  0  0  0  0  0  0  0  0  0  0  0
   -4.8098    9.7648   -8.0558 C   0  0  0  0  0  0  0  0  0  0  0  0
   -3.5520   10.3132   -7.8064 C   0  0  0  0  0  0  0  0  0  0  0  0
   -3.4430   11.5871   -7.2363 C   0  0  0  0  0  0  0  0  0  0  0  0
   -4.5944   12.3027   -6.9144 C   0  0  0  0  0  0  0  0  0  0  0  0
   -5.8504   11.7539   -7.1603 C   0  0  0  0  0  0  0  0  0  0  0  0
   -2.0991   12.1752   -6.9687 C   0  0  0  0  0  0  0  0  0  0  0  0
   -1.7663   13.4191   -6.4362 C   0  0  0  0  0  0  0  0  0  0  0  0
   -0.4291   13.4776   -6.3870 N   0  0  0  0  0  0  0  0  0  0  0  0
    0.1723   12.4029   -6.8190 N   0  0  0  0  0  0  0  0  0  0  0  0
   -0.8029   11.5945   -7.2007 C   0  0  0  0  0  0  0  0  0  0  0  0
    0.3904   14.5868   -5.9117 C   0  0  0  0  0  0  0  0  0  0  0  0
   -5.5187   11.6324  -10.3449 H   0  0  0  0  0  0  0  0  0  0  0  0
   -7.0319   12.5715  -10.1102 H   0  0  0  0  0  0  0  0  0  0  0  0
   -8.7487   10.7774  -13.3871 H   0  0  0  0  0  0  0  0  0  0  0  0
   -7.2503    9.8346  -13.6914 H   0  0  0  0  0  0  0  0  0  0  0  0
   -6.8945   12.2471  -14.0936 H   0  0  0  0  0  0  0  0  0  0  0  0
   -8.0374    9.6016   -7.2571 H   0  0  0  0  0  0  0  0  0  0  0  0
   -2.5387   14.5023  -10.9550 H   0  0  0  0  0  0  0  0  0  0  0  0
   -3.0724   14.8267  -12.6391 H   0  0  0  0  0  0  0  0  0  0  0  0
   -3.8811   15.6547  -11.2654 H   0  0  0  0  0  0  0  0  0  0  0  0
   -5.2461   15.2234  -12.9243 H   0  0  0  0  0  0  0  0  0  0  0  0
   -4.8927    8.7823   -8.4965 H   0  0  0  0  0  0  0  0  0  0  0  0
   -2.6613    9.7546   -8.0533 H   0  0  0  0  0  0  0  0  0  0  0  0
   -4.5126   13.2851   -6.4732 H   0  0  0  0  0  0  0  0  0  0  0  0
   -6.7407   12.3097   -6.9056 H   0  0  0  0  0  0  0  0  0  0  0  0
   -2.4554   14.1894   -6.1228 H   0  0  0  0  0  0  0  0  0  0  0  0
   -0.6455   10.6177   -7.6337 H   0  0  0  0  0  0  0  0  0  0  0  0
    1.4543   14.3214   -5.9997 H   0  0  0  0  0  0  0  0  0  0  0  0
    0.1843   15.4810   -6.5183 H   0  0  0  0  0  0  0  0  0  0  0  0
    0.1504   14.7949   -4.8586 H   0  0  0  0  0  0  0  0  0  0  0  0
  1  2  1  0  0  0  0
  1  4  2  0  0  0  0
  1 13  1  0  0  0  0
  2  6  1  0  0  0  0
  3  4  1  0  0  0  0
  3  5  1  0  0  0  0
  5  6  2  0  0  0  0
  5  9  1  0  0  0  0
  6  7  1  0  0  0  0
  7  8  1  0  0  0  0
  7 10  2  3  0  0  0
  8  9  2  0  0  0  0
 10 15  1  0  0  0  0
 11 12  1  0  0  0  0
 11 13  2  0  0  0  0
 13 14  1  0  0  0  0
 15 16  2  0  0  0  0
 15 20  1  0  0  0  0
 16 17  1  0  0  0  0
 17 18  2  0  0  0  0
 18 19  1  0  0  0  0
 18 21  1  0  0  0  0
 19 20  2  0  0  0  0
 21 22  2  0  0  0  0
 21 25  1  0  0  0  0
 22 23  1  0  0  0  0
 23 24  1  0  0  0  0
 23 26  1  0  0  0  0
 24 25  2  0  0  0  0
  2 27  1  0  0  0  0
  2 28  1  0  0  0  0
  3 29  1  0  0  0  0
  3 30  1  0  0  0  0
  4 31  1  0  0  0  0
 10 32  1  0  0  0  0
 12 33  1  0  0  0  0
 12 34  1  0  0  0  0
 12 35  1  0  0  0  0
 14 36  1  0  0  0  0
 16 37  1  0  0  0  0
 17 38  1  0  0  0  0
 19 39  1  0  0  0  0
 20 40  1  0  0  0  0
 22 41  1  0  0  0  0
 25 42  1  0  0  0  0
 26 43  1  0  0  0  0
 26 44  1  0  0  0  0
 26 45  1  0  0  0  0
M  END
> <Name>
19

> <IC50[uM]>
0.015

$$$$
19
  -OEChem-05192314333D
 Structure written by MMmdl.
 45 48  0     1  0  0  0  0  0999 V2000
   -6.3863   12.3686  -12.0106 C   0  0  0  0  0  0  0  0  0  0  0  0
   -6.5303   11.8179  -10.7351 C   0  0  0  0  0  0  0  0  0  0  0  0
   -7.7274   10.5747  -13.0322 C   0  0  0  0  0  0  0  0  0  0  0  0
   -6.9939   11.7717  -13.1290 C   0  0  0  0  0  0  0  0  0  0  0  0
   -7.8233   10.0108  -11.7572 C   0  0  3  0  0  0  0  0  0  0  0  0
   -7.2504   10.6246  -10.6026 C   0  0  0  0  0  0  0  0  0  0  0  0
   -7.6148    9.7488   -9.5126 C   0  0  0  0  0  0  0  0  0  0  0  0
   -8.2772    8.7301   -9.9866 N   0  0  0  0  0  0  0  0  0  0  0  0
   -8.4133    8.8585  -11.2996 N   0  0  0  0  0  0  0  0  0  0  0  0
   -7.3367    9.8906   -8.0265 C   0  0  0  0  0  0  0  0  0  0  0  0
   -4.3739   13.6178  -11.5022 N   0  0  0  0  0  0  0  0  0  0  0  0
   -3.4056   14.7196  -11.5963 C   0  0  0  0  0  0  0  0  0  0  0  0
   -5.5407   13.6198  -12.1903 C   0  0  0  0  0  0  0  0  0  0  0  0
   -5.8948   14.5296  -12.9394 O   0  0  0  0  0  0  0  0  0  0  0  0
   -5.9610   10.4852   -7.7361 C   0  0  0  0  0  0  0  0  0  0  0  0
   -4.8098    9.7648   -8.0558 C   0  0  0  0  0  0  0  0  0  0  0  0
   -3.5520   10.3132   -7.8064 C   0  0  0  0  0  0  0  0  0  0  0  0
   -3.4430   11.5871   -7.2363 C   0  0  0  0  0  0  0  0  0  0  0  0
   -4.5944   12.3027   -6.9144 C   0  0  0  0  0  0  0  0  0  0  0  0
   -5.8504   11.7539   -7.1603 C   0  0  0  0  0  0  0  0  0  0  0  0
   -2.0991   12.1752   -6.9687 C   0  0  0  0  0  0  0  0  0  0  0  0
   -1.7663   13.4191   -6.4362 C   0  0  0  0  0  0  0  0  0  0  0  0
   -0.4291   13.4776   -6.3870 N   0  0  0  0  0  0  0  0  0  0  0  0
    0.1723   12.4029   -6.8190 N   0  0  0  0  0  0  0  0  0  0  0  0
   -0.8029   11.5945   -7.2007 C   0  0  0  0  0  0  0  0  0  0  0  0
    0.3904   14.5868   -5.9117 C   0  0  0  0  0  0  0  0  0  0  0  0
   -6.0966   12.3009   -9.8720 H   0  0  0  0  0  0  0  0  0  0  0  0
   -8.1900   10.1177  -13.8945 H   0  0  0  0  0  0  0  0  0  0  0  0
   -6.8945   12.2471  -14.0936 H   0  0  0  0  0  0  0  0  0  0  0  0
   -8.7607   10.5598  -11.5844 H   0  0  0  0  0  0  0  0  0  0  0  0
   -8.1028   10.5460   -7.5866 H   0  0  0  0  0  0  0  0  0  0  0  0
   -7.3947    8.8954   -7.5616 H   0  0  0  0  0  0  0  0  0  0  0  0
   -2.5387   14.5023  -10.9550 H   0  0  0  0  0  0  0  0  0  0  0  0
   -3.0724   14.8267  -12.6391 H   0  0  0  0  0  0  0  0  0  0  0  0
   -3.8811   15.6547  -11.2654 H   0  0  0  0  0  0  0  0  0  0  0  0
   -5.2461   15.2234  -12.9243 H   0  0  0  0  0  0  0  0  0  0  0  0
   -4.8927    8.7823   -8.4965 H   0  0  0  0  0  0  0  0  0  0  0  0
   -2.6613    9.7546   -8.0533 H   0  0  0  0  0  0  0  0  0  0  0  0
   -4.5126   13.2851   -6.4732 H   0  0  0  0  0  0  0  0  0  0  0  0
   -6.7407   12.3097   -6.9056 H   0  0  0  0  0  0  0  0  0  0  0  0
   -2.4554   14.1894   -6.1228 H   0  0  0  0  0  0  0  0  0  0  0  0
   -0.6455   10.6177   -7.6337 H   0  0  0  0  0  0  0  0  0  0  0  0
    1.4543   14.3214   -5.9997 H   0  0  0  0  0  0  0  0  0  0  0  0
    0.1843   15.4810   -6.5183 H   0  0  0  0  0  0  0  0  0  0  0  0
    0.1504   14.7949   -4.8586 H   0  0  0  0  0  0  0  0  0  0  0  0
  1  2  2  0  0  0  0
  1  4  1  0  0  0  0
  1 13  1  0  0  0  0
  2  6  1  0  0  0  0
  3  4  2  0  0  0  0
  3  5  1  0  0  0  0
  5  6  1  0  0  0  0
  5  9  1  0  0  0  0
  6  7  2  0  0  0  0
  7  8  1  0  0  0  0
  7 10  1  0  0  0  0
  8  9  2  0  0  0  0
 10 15  1  0  0  0  0
 11 12  1  0  0  0  0
 11 13  2  0  0  0  0
 13 14  1  0  0  0  0
 15 16  2  0  0  0  0
 15 20  1  0  0  0  0
 16 17  1  0  0  0  0
 17 18  2  0  0  0  0
 18 19  1  0  0  0  0
 18 21  1  0  0  0  0
 19 20  2  0  0  0  0
 21 22  2  0  0  0  0
 21 25  1  0  0  0  0
 22 23  1  0  0  0  0
 23 24  1  0  0  0  0
 23 26  1  0  0  0  0
 24 25  2  0  0  0  0
  2 27  1  0  0  0  0
  3 28  1  0  0  0  0
  4 29  1  0  0  0  0
  5 30  1  0  0  0  0
 10 31  1  0  0  0  0
 10 32  1  0  0  0  0
 12 33  1  0  0  0  0
 12 34  1  0  0  0  0
 12 35  1  0  0  0  0
 14 36  1  0  0  0  0
 16 37  1  0  0  0  0
 17 38  1  0  0  0  0
 19 39  1  0  0  0  0
 20 40  1  0  0  0  0
 22 41  1  0  0  0  0
 25 42  1  0  0  0  0
 26 43  1  0  0  0  0
 26 44  1  0  0  0  0
 26 45  1  0  0  0  0
M  END
> <Name>
19

> <IC50[uM]>
0.015

$$$$
19
  -OEChem-05192314333D
 Structure written by MMmdl.
 45 48  0     0  0  0  0  0  0999 V2000
   -6.3863   12.3686  -12.0106 C   0  0  0  0  0  0  0  0  0  0  0  0
   -6.5303   11.8179  -10.7351 C   0  0  0  0  0  0  0  0  0  0  0  0
   -7.7274   10.5747  -13.0322 C   0  0  0  0  0  0  0  0  0  0  0  0
   -6.9939   11.7717  -13.1290 C   0  0  0  0  0  0  0  0  0  0  0  0
   -7.8233   10.0108  -11.7572 C   0  0  0  0  0  0  0  0  0  0  0  0
   -7.2504   10.6246  -10.6026 C   0  0  0  0  0  0  0  0  0  0  0  0
   -7.6148    9.7488   -9.5126 C   0  0  0  0  0  0  0  0  0  0  0  0
   -8.2772    8.7301   -9.9866 N   0  0  0  0  0  0  0  0  0  0  0  0
   -8.4133    8.8585  -11.2996 N   0  0  0  0  0  0  0  0  0  0  0  0
   -7.3367    9.8906   -8.0265 C   0  0  0  0  0  0  0  0  0  0  0  0
   -4.3739   13.6178  -11.5022 N   0  0  0  0  0  0  0  0  0  0  0  0
   -3.4056   14.7196  -11.5963 C   0  0  0  0  0  0  0  0  0  0  0  0
   -5.5407   13.6198  -12.1903 C   0  0  0  0  0  0  0  0  0  0  0  0
   -5.8948   14.5296  -12.9394 O   0  0  0  0  0  0  0  0  0  0  0  0
   -5.9610   10.4852   -7.7361 C   0  0  0  0  0  0  0  0  0  0  0  0
   -4.8098    9.7648   -8.0558 C   0  0  0  0  0  0  0  0  0  0  0  0
   -3.5520   10.3132   -7.8064 C   0  0  0  0  0  0  0  0  0  0  0  0
   -3.4430   11.5871   -7.2363 C   0  0  0  0  0  0  0  0  0  0  0  0
   -4.5944   12.3027   -6.9144 C   0  0  0  0  0  0  0  0  0  0  0  0
   -5.8504   11.7539   -7.1603 C   0  0  0  0  0  0  0  0  0  0  0  0
   -2.0991   12.1752   -6.9687 C   0  0  0  0  0  0  0  0  0  0  0  0
   -1.7663   13.4191   -6.4362 C   0  0  0  0  0  0  0  0  0  0  0  0
   -0.4291   13.4776   -6.3870 N   0  0  0  0  0  0  0  0  0  0  0  0
    0.1723   12.4029   -6.8190 N   0  0  0  0  0  0  0  0  0  0  0  0
   -0.8029   11.5945   -7.2007 C   0  0  0  0  0  0  0  0  0  0  0  0
    0.3904   14.5868   -5.9117 C   0  0  0  0  0  0  0  0  0  0  0  0
   -6.0966   12.3009   -9.8720 H   0  0  0  0  0  0  0  0  0  0  0  0
   -8.1900   10.1177  -13.8945 H   0  0  0  0  0  0  0  0  0  0  0  0
   -7.6841   12.5226  -13.5411 H   0  0  0  0  0  0  0  0  0  0  0  0
   -6.1868   11.5800  -13.8514 H   0  0  0  0  0  0  0  0  0  0  0  0
   -8.1028   10.5460   -7.5866 H   0  0  0  0  0  0  0  0  0  0  0  0
   -7.3947    8.8954   -7.5616 H   0  0  0  0  0  0  0  0  0  0  0  0
   -2.5387   14.5023  -10.9550 H   0  0  0  0  0  0  0  0  0  0  0  0
   -3.0724   14.8267  -12.6391 H   0  0  0  0  0  0  0  0  0  0  0  0
   -3.8811   15.6547  -11.2654 H   0  0  0  0  0  0  0  0  0  0  0  0
   -5.2461   15.2234  -12.9243 H   0  0  0  0  0  0  0  0  0  0  0  0
   -4.8927    8.7823   -8.4965 H   0  0  0  0  0  0  0  0  0  0  0  0
   -2.6613    9.7546   -8.0533 H   0  0  0  0  0  0  0  0  0  0  0  0
   -4.5126   13.2851   -6.4732 H   0  0  0  0  0  0  0  0  0  0  0  0
   -6.7407   12.3097   -6.9056 H   0  0  0  0  0  0  0  0  0  0  0  0
   -2.4554   14.1894   -6.1228 H   0  0  0  0  0  0  0  0  0  0  0  0
   -0.6455   10.6177   -7.6337 H   0  0  0  0  0  0  0  0  0  0  0  0
    1.4543   14.3214   -5.9997 H   0  0  0  0  0  0  0  0  0  0  0  0
    0.1843   15.4810   -6.5183 H   0  0  0  0  0  0  0  0  0  0  0  0
    0.1504   14.7949   -4.8586 H   0  0  0  0  0  0  0  0  0  0  0  0
  1  2  2  0  0  0  0
  1  4  1  0  0  0  0
  1 13  1  0  0  0  0
  2  6  1  0  0  0  0
  3  4  1  0  0  0  0
  3  5  2  0  0  0  0
  5  6  1  0  0  0  0
  5  9  1  0  0  0  0
  6  7  2  0  0  0  0
  7  8  1  0  0  0  0
  7 10  1  0  0  0  0
  8  9  2  0  0  0  0
 10 15  1  0  0  0  0
 11 12  1  0  0  0  0
 11 13  2  0  0  0  0
 13 14  1  0  0  0  0
 15 16  2  0  0  0  0
 15 20  1  0  0  0  0
 16 17  1  0  0  0  0
 17 18  2  0  0  0  0
 18 19  1  0  0  0  0
 18 21  1  0  0  0  0
 19 20  2  0  0  0  0
 21 22  2  0  0  0  0
 21 25  1  0  0  0  0
 22 23  1  0  0  0  0
 23 24  1  0  0  0  0
 23 26  1  0  0  0  0
 24 25  2  0  0  0  0
  2 27  1  0  0  0  0
  3 28  1  0  0  0  0
  4 29  1  0  0  0  0
  4 30  1  0  0  0  0
 10 31  1  0  0  0  0
 10 32  1  0  0  0  0
 12 33  1  0  0  0  0
 12 34  1  0  0  0  0
 12 35  1  0  0  0  0
 14 36  1  0  0  0  0
 16 37  1  0  0  0  0
 17 38  1  0  0  0  0
 19 39  1  0  0  0  0
 20 40  1  0  0  0  0
 22 41  1  0  0  0  0
 25 42  1  0  0  0  0
 26 43  1  0  0  0  0
 26 44  1  0  0  0  0
 26 45  1  0  0  0  0
M  END
> <Name>
19

> <IC50[uM]>
0.015

$$$$
19
  -OEChem-05192314333D
 Structure written by MMmdl.
 45 48  0     0  0  0  0  0  0999 V2000
   -6.3863   12.3686  -12.0106 C   0  0  0  0  0  0  0  0  0  0  0  0
   -6.5303   11.8179  -10.7351 C   0  0  0  0  0  0  0  0  0  0  0  0
   -7.7274   10.5747  -13.0322 C   0  0  0  0  0  0  0  0  0  0  0  0
   -6.9939   11.7717  -13.1290 C   0  0  0  0  0  0  0  0  0  0  0  0
   -7.8233   10.0108  -11.7572 C   0  0  0  0  0  0  0  0  0  0  0  0
   -7.2504   10.6246  -10.6026 C   0  0  0  0  0  0  0  0  0  0  0  0
   -7.6148    9.7488   -9.5126 C   0  0  0  0  0  0  0  0  0  0  0  0
   -8.2772    8.7301   -9.9866 N   0  0  0  0  0  0  0  0  0  0  0  0
   -8.4133    8.8585  -11.2996 N   0  0  0  0  0  0  0  0  0  0  0  0
   -7.3367    9.8906   -8.0265 C   0  0  0  0  0  0  0  0  0  0  0  0
   -4.3739   13.6178  -11.5022 N   0  0  0  0  0  0  0  0  0  0  0  0
   -3.4056   14.7196  -11.5963 C   0  0  0  0  0  0  0  0  0  0  0  0
   -5.5407   13.6198  -12.1903 C   0  0  0  0  0  0  0  0  0  0  0  0
   -5.8948   14.5296  -12.9394 O   0  0  0  0  0  0  0  0  0  0  0  0
   -5.9610   10.4852   -7.7361 C   0  0  0  0  0  0  0  0  0  0  0  0
   -4.8098    9.7648   -8.0558 C   0  0  0  0  0  0  0  0  0  0  0  0
   -3.5520   10.3132   -7.8064 C   0  0  0  0  0  0  0  0  0  0  0  0
   -3.4430   11.5871   -7.2363 C   0  0  0  0  0  0  0  0  0  0  0  0
   -4.5944   12.3027   -6.9144 C   0  0  0  0  0  0  0  0  0  0  0  0
   -5.8504   11.7539   -7.1603 C   0  0  0  0  0  0  0  0  0  0  0  0
   -2.0991   12.1752   -6.9687 C   0  0  0  0  0  0  0  0  0  0  0  0
   -1.7663   13.4191   -6.4362 C   0  0  0  0  0  0  0  0  0  0  0  0
   -0.4291   13.4776   -6.3870 N   0  0  0  0  0  0  0  0  0  0  0  0
    0.1723   12.4029   -6.8190 N   0  0  0  0  0  0  0  0  0  0  0  0
   -0.8029   11.5945   -7.2007 C   0  0  0  0  0  0  0  0  0  0  0  0
    0.3904   14.5868   -5.9117 C   0  0  0  0  0  0  0  0  0  0  0  0
   -5.5187   11.6324  -10.3449 H   0  0  0  0  0  0  0  0  0  0  0  0
   -7.0319   12.5715  -10.1102 H   0  0  0  0  0  0  0  0  0  0  0  0
   -8.1900   10.1177  -13.8945 H   0  0  0  0  0  0  0  0  0  0  0  0
   -6.8945   12.2471  -14.0936 H   0  0  0  0  0  0  0  0  0  0  0  0
   -8.1028   10.5460   -7.5866 H   0  0  0  0  0  0  0  0  0  0  0  0
   -7.3947    8.8954   -7.5616 H   0  0  0  0  0  0  0  0  0  0  0  0
   -2.5387   14.5023  -10.9550 H   0  0  0  0  0  0  0  0  0  0  0  0
   -3.0724   14.8267  -12.6391 H   0  0  0  0  0  0  0  0  0  0  0  0
   -3.8811   15.6547  -11.2654 H   0  0  0  0  0  0  0  0  0  0  0  0
   -5.2461   15.2234  -12.9243 H   0  0  0  0  0  0  0  0  0  0  0  0
   -4.8927    8.7823   -8.4965 H   0  0  0  0  0  0  0  0  0  0  0  0
   -2.6613    9.7546   -8.0533 H   0  0  0  0  0  0  0  0  0  0  0  0
   -4.5126   13.2851   -6.4732 H   0  0  0  0  0  0  0  0  0  0  0  0
   -6.7407   12.3097   -6.9056 H   0  0  0  0  0  0  0  0  0  0  0  0
   -2.4554   14.1894   -6.1228 H   0  0  0  0  0  0  0  0  0  0  0  0
   -0.6455   10.6177   -7.6337 H   0  0  0  0  0  0  0  0  0  0  0  0
    1.4543   14.3214   -5.9997 H   0  0  0  0  0  0  0  0  0  0  0  0
    0.1843   15.4810   -6.5183 H   0  0  0  0  0  0  0  0  0  0  0  0
    0.1504   14.7949   -4.8586 H   0  0  0  0  0  0  0  0  0  0  0  0
  1  2  1  0  0  0  0
  1  4  2  0  0  0  0
  1 13  1  0  0  0  0
  2  6  1  0  0  0  0
  3  4  1  0  0  0  0
  3  5  2  0  0  0  0
  5  6  1  0  0  0  0
  5  9  1  0  0  0  0
  6  7  2  0  0  0  0
  7  8  1  0  0  0  0
  7 10  1  0  0  0  0
  8  9  2  0  0  0  0
 10 15  1  0  0  0  0
 11 12  1  0  0  0  0
 11 13  2  0  0  0  0
 13 14  1  0  0  0  0
 15 16  2  0  0  0  0
 15 20  1  0  0  0  0
 16 17  1  0  0  0  0
 17 18  2  0  0  0  0
 18 19  1  0  0  0  0
 18 21  1  0  0  0  0
 19 20  2  0  0  0  0
 21 22  2  0  0  0  0
 21 25  1  0  0  0  0
 22 23  1  0  0  0  0
 23 24  1  0  0  0  0
 23 26  1  0  0  0  0
 24 25  2  0  0  0  0
  2 27  1  0  0  0  0
  2 28  1  0  0  0  0
  3 29  1  0  0  0  0
  4 30  1  0  0  0  0
 10 31  1  0  0  0  0
 10 32  1  0  0  0  0
 12 33  1  0  0  0  0
 12 34  1  0  0  0  0
 12 35  1  0  0  0  0
 14 36  1  0  0  0  0
 16 37  1  0  0  0  0
 17 38  1  0  0  0  0
 19 39  1  0  0  0  0
 20 40  1  0  0  0  0
 22 41  1  0  0  0  0
 25 42  1  0  0  0  0
 26 43  1  0  0  0  0
 26 44  1  0  0  0  0
 26 45  1  0  0  0  0
M  END
> <Name>
19

> <IC50[uM]>
0.015

$$$$
19
  -OEChem-05192314333D
 Structure written by MMmdl.
 45 48  0     1  0  0  0  0  0999 V2000
   -6.3863   12.3686  -12.0106 C   0  0  0  0  0  0  0  0  0  0  0  0
   -6.5303   11.8179  -10.7351 C   0  0  0  0  0  0  0  0  0  0  0  0
   -7.7274   10.5747  -13.0322 C   0  0  0  0  0  0  0  0  0  0  0  0
   -6.9939   11.7717  -13.1290 C   0  0  0  0  0  0  0  0  0  0  0  0
   -7.8233   10.0108  -11.7572 C   0  0  0  0  0  0  0  0  0  0  0  0
   -7.2504   10.6246  -10.6026 C   0  0  3  0  0  0  0  0  0  0  0  0
   -7.6148    9.7488   -9.5126 C   0  0  0  0  0  0  0  0  0  0  0  0
   -8.2772    8.7301   -9.9866 N   0  0  0  0  0  0  0  0  0  0  0  0
   -8.4133    8.8585  -11.2996 N   0  0  0  0  0  0  0  0  0  0  0  0
   -7.3367    9.8906   -8.0265 C   0  0  0  0  0  0  0  0  0  0  0  0
   -4.3739   13.6178  -11.5022 N   0  0  0  0  0  0  0  0  0  0  0  0
   -3.4056   14.7196  -11.5963 C   0  0  0  0  0  0  0  0  0  0  0  0
   -5.5407   13.6198  -12.1903 C   0  0  0  0  0  0  0  0  0  0  0  0
   -5.8948   14.5296  -12.9394 O   0  0  0  0  0  0  0  0  0  0  0  0
   -5.9610   10.4852   -7.7361 C   0  0  0  0  0  0  0  0  0  0  0  0
   -4.8098    9.7648   -8.0558 C   0  0  0  0  0  0  0  0  0  0  0  0
   -3.5520   10.3132   -7.8064 C   0  0  0  0  0  0  0  0  0  0  0  0
   -3.4430   11.5871   -7.2363 C   0  0  0  0  0  0  0  0  0  0  0  0
   -4.5944   12.3027   -6.9144 C   0  0  0  0  0  0  0  0  0  0  0  0
   -5.8504   11.7539   -7.1603 C   0  0  0  0  0  0  0  0  0  0  0  0
   -2.0991   12.1752   -6.9687 C   0  0  0  0  0  0  0  0  0  0  0  0
   -1.7663   13.4191   -6.4362 C   0  0  0  0  0  0  0  0  0  0  0  0
   -0.4291   13.4776   -6.3870 N   0  0  0  0  0  0  0  0  0  0  0  0
    0.1723   12.4029   -6.8190 N   0  0  0  0  0  0  0  0  0  0  0  0
   -0.8029   11.5945   -7.2007 C   0  0  0  0  0  0  0  0  0  0  0  0
    0.3904   14.5868   -5.9117 C   0  0  0  0  0  0  0  0  0  0  0  0
   -6.0966   12.3009   -9.8720 H   0  0  0  0  0  0  0  0  0  0  0  0
   -8.1900   10.1177  -13.8945 H   0  0  0  0  0  0  0  0  0  0  0  0
   -6.8945   12.2471  -14.0936 H   0  0  0  0  0  0  0  0  0  0  0  0
   -6.3254   10.0493  -10.7557 H   0  0  0  0  0  0  0  0  0  0  0  0
   -8.6289    7.9682   -9.4428 H   0  0  0  0  0  0  0  0  0  0  0  0
   -8.0374    9.6016   -7.2571 H   0  0  0  0  0  0  0  0  0  0  0  0
   -2.5387   14.5023  -10.9550 H   0  0  0  0  0  0  0  0  0  0  0  0
   -3.0724   14.8267  -12.6391 H   0  0  0  0  0  0  0  0  0  0  0  0
   -3.8811   15.6547  -11.2654 H   0  0  0  0  0  0  0  0  0  0  0  0
   -5.2461   15.2234  -12.9243 H   0  0  0  0  0  0  0  0  0  0  0  0
   -4.8927    8.7823   -8.4965 H   0  0  0  0  0  0  0  0  0  0  0  0
   -2.6613    9.7546   -8.0533 H   0  0  0  0  0  0  0  0  0  0  0  0
   -4.5126   13.2851   -6.4732 H   0  0  0  0  0  0  0  0  0  0  0  0
   -6.7407   12.3097   -6.9056 H   0  0  0  0  0  0  0  0  0  0  0  0
   -2.4554   14.1894   -6.1228 H   0  0  0  0  0  0  0  0  0  0  0  0
   -0.6455   10.6177   -7.6337 H   0  0  0  0  0  0  0  0  0  0  0  0
    1.4543   14.3214   -5.9997 H   0  0  0  0  0  0  0  0  0  0  0  0
    0.1843   15.4810   -6.5183 H   0  0  0  0  0  0  0  0  0  0  0  0
    0.1504   14.7949   -4.8586 H   0  0  0  0  0  0  0  0  0  0  0  0
  1  2  2  0  0  0  0
  1  4  1  0  0  0  0
  1 13  1  0  0  0  0
  2  6  1  0  0  0  0
  3  4  2  0  0  0  0
  3  5  1  0  0  0  0
  5  6  1  0  0  0  0
  5  9  2  0  0  0  0
  6  7  1  0  0  0  0
  7  8  1  0  0  0  0
  7 10  2  3  0  0  0
  8  9  1  0  0  0  0
 10 15  1  0  0  0  0
 11 12  1  0  0  0  0
 11 13  2  0  0  0  0
 13 14  1  0  0  0  0
 15 16  2  0  0  0  0
 15 20  1  0  0  0  0
 16 17  1  0  0  0  0
 17 18  2  0  0  0  0
 18 19  1  0  0  0  0
 18 21  1  0  0  0  0
 19 20  2  0  0  0  0
 21 22  2  0  0  0  0
 21 25  1  0  0  0  0
 22 23  1  0  0  0  0
 23 24  1  0  0  0  0
 23 26  1  0  0  0  0
 24 25  2  0  0  0  0
  2 27  1  0  0  0  0
  3 28  1  0  0  0  0
  4 29  1  0  0  0  0
  6 30  1  0  0  0  0
  8 31  1  0  0  0  0
 10 32  1  0  0  0  0
 12 33  1  0  0  0  0
 12 34  1  0  0  0  0
 12 35  1  0  0  0  0
 14 36  1  0  0  0  0
 16 37  1  0  0  0  0
 17 38  1  0  0  0  0
 19 39  1  0  0  0  0
 20 40  1  0  0  0  0
 22 41  1  0  0  0  0
 25 42  1  0  0  0  0
 26 43  1  0  0  0  0
 26 44  1  0  0  0  0
 26 45  1  0  0  0  0
M  END
> <Name>
19

> <IC50[uM]>
0.015

$$$$
19
  -OEChem-05192314333D
 Structure written by MMmdl.
 45 48  0     1  0  0  0  0  0999 V2000
   -6.3863   12.3686  -12.0106 C   0  0  0  0  0  0  0  0  0  0  0  0
   -6.5303   11.8179  -10.7351 C   0  0  0  0  0  0  0  0  0  0  0  0
   -7.7274   10.5747  -13.0322 C   0  0  0  0  0  0  0  0  0  0  0  0
   -6.9939   11.7717  -13.1290 C   0  0  0  0  0  0  0  0  0  0  0  0
   -7.8233   10.0108  -11.7572 C   0  0  0  0  0  0  0  0  0  0  0  0
   -7.2504   10.6246  -10.6026 C   0  0  0  0  0  0  0  0  0  0  0  0
   -7.6148    9.7488   -9.5126 C   0  0  0  0  0  0  0  0  0  0  0  0
   -8.2772    8.7301   -9.9866 N   0  0  0  0  0  0  0  0  0  0  0  0
   -8.4133    8.8585  -11.2996 N   0  0  0  0  0  0  0  0  0  0  0  0
   -7.3367    9.8906   -8.0265 C   0  0  0  0  0  0  0  0  0  0  0  0
   -4.3739   13.6178  -11.5022 N   0  0  0  0  0  0  0  0  0  0  0  0
   -3.4056   14.7196  -11.5963 C   0  0  0  0  0  0  0  0  0  0  0  0
   -5.5407   13.6198  -12.1903 C   0  0  0  0  0  0  0  0  0  0  0  0
   -5.8948   14.5296  -12.9394 O   0  0  0  0  0  0  0  0  0  0  0  0
   -5.9610   10.4852   -7.7361 C   0  0  0  0  0  0  0  0  0  0  0  0
   -4.8098    9.7648   -8.0558 C   0  0  0  0  0  0  0  0  0  0  0  0
   -3.5520   10.3132   -7.8064 C   0  0  0  0  0  0  0  0  0  0  0  0
   -3.4430   11.5871   -7.2363 C   0  0  0  0  0  0  0  0  0  0  0  0
   -4.5944   12.3027   -6.9144 C   0  0  0  0  0  0  0  0  0  0  0  0
   -5.8504   11.7539   -7.1603 C   0  0  0  0  0  0  0  0  0  0  0  0
   -2.0991   12.1752   -6.9687 C   0  0  0  0  0  0  0  0  0  0  0  0
   -1.7663   13.4191   -6.4362 C   0  0  0  0  0  0  0  0  0  0  0  0
   -0.4291   13.4776   -6.3870 N   0  0  3  0  0  0  0  0  0  0  0  0
    0.1723   12.4029   -6.8190 N   0  0  0  0  0  0  0  0  0  0  0  0
   -0.8029   11.5945   -7.2007 C   0  0  0  0  0  0  0  0  0  0  0  0
    0.3904   14.5868   -5.9117 C   0  0  0  0  0  0  0  0  0  0  0  0
   -6.0966   12.3009   -9.8720 H   0  0  0  0  0  0  0  0  0  0  0  0
   -8.1900   10.1177  -13.8945 H   0  0  0  0  0  0  0  0  0  0  0  0
   -6.8945   12.2471  -14.0936 H   0  0  0  0  0  0  0  0  0  0  0  0
   -8.0374    9.6016   -7.2571 H   0  0  0  0  0  0  0  0  0  0  0  0
   -4.1641   12.8399  -10.9098 H   0  0  0  0  0  0  0  0  0  0  0  0
   -2.5387   14.5023  -10.9550 H   0  0  0  0  0  0  0  0  0  0  0  0
   -3.0724   14.8267  -12.6391 H   0  0  0  0  0  0  0  0  0  0  0  0
   -3.8811   15.6547  -11.2654 H   0  0  0  0  0  0  0  0  0  0  0  0
   -5.9721   10.0288   -6.7353 H   0  0  0  0  0  0  0  0  0  0  0  0
   -4.8927    8.7823   -8.4965 H   0  0  0  0  0  0  0  0  0  0  0  0
   -2.6613    9.7546   -8.0533 H   0  0  0  0  0  0  0  0  0  0  0  0
   -4.5126   13.2851   -6.4732 H   0  0  0  0  0  0  0  0  0  0  0  0
   -6.7407   12.3097   -6.9056 H   0  0  0  0  0  0  0  0  0  0  0  0
   -2.1564   14.2220   -7.0789 H   0  0  0  0  0  0  0  0  0  0  0  0
   -2.1866   13.5221   -5.4249 H   0  0  0  0  0  0  0  0  0  0  0  0
   -0.6455   10.6177   -7.6337 H   0  0  0  0  0  0  0  0  0  0  0  0
    1.4543   14.3214   -5.9997 H   0  0  0  0  0  0  0  0  0  0  0  0
    0.1843   15.4810   -6.5183 H   0  0  0  0  0  0  0  0  0  0  0  0
    0.1504   14.7949   -4.8586 H   0  0  0  0  0  0  0  0  0  0  0  0
  1  2  2  0  0  0  0
  1  4  1  0  0  0  0
  1 13  1  0  0  0  0
  2  6  1  0  0  0  0
  3  4  2  0  0  0  0
  3  5  1  0  0  0  0
  5  6  2  0  0  0  0
  5  9  1  0  0  0  0
  6  7  1  0  0  0  0
  7  8  1  0  0  0  0
  7 10  2  3  0  0  0
  8  9  2  0  0  0  0
 10 15  1  0  0  0  0
 11 12  1  0  0  0  0
 11 13  1  0  0  0  0
 13 14  2  0  0  0  0
 15 16  1  0  0  0  0
 15 20  1  0  0  0  0
 16 17  2  0  0  0  0
 17 18  1  0  0  0  0
 18 19  1  0  0  0  0
 18 21  2  0  0  0  0
 19 20  2  0  0  0  0
 21 22  1  0  0  0  0
 21 25  1  0  0  0  0
 22 23  1  0  0  0  0
 23 24  1  0  0  0  0
 23 26  1  0  0  0  0
 24 25  2  0  0  0  0
  2 27  1  0  0  0  0
  3 28  1  0  0  0  0
  4 29  1  0  0  0  0
 10 30  1  0  0  0  0
 11 31  1  0  0  0  0
 12 32  1  0  0  0  0
 12 33  1  0  0  0  0
 12 34  1  0  0  0  0
 15 35  1  0  0  0  0
 16 36  1  0  0  0  0
 17 37  1  0  0  0  0
 19 38  1  0  0  0  0
 20 39  1  0  0  0  0
 22 40  1  0  0  0  0
 22 41  1  0  0  0  0
 25 42  1  0  0  0  0
 26 43  1  0  0  0  0
 26 44  1  0  0  0  0
 26 45  1  0  0  0  0
M  END
> <Name>
19

> <IC50[uM]>
0.015

$$$$
19
  -OEChem-05192314333D
 Structure written by MMmdl.
 45 48  0     1  0  0  0  0  0999 V2000
   -6.3863   12.3686  -12.0106 C   0  0  0  0  0  0  0  0  0  0  0  0
   -6.5303   11.8179  -10.7351 C   0  0  0  0  0  0  0  0  0  0  0  0
   -7.7274   10.5747  -13.0322 C   0  0  0  0  0  0  0  0  0  0  0  0
   -6.9939   11.7717  -13.1290 C   0  0  0  0  0  0  0  0  0  0  0  0
   -7.8233   10.0108  -11.7572 C   0  0  0  0  0  0  0  0  0  0  0  0
   -7.2504   10.6246  -10.6026 C   0  0  0  0  0  0  0  0  0  0  0  0
   -7.6148    9.7488   -9.5126 C   0  0  0  0  0  0  0  0  0  0  0  0
   -8.2772    8.7301   -9.9866 N   0  0  0  0  0  0  0  0  0  0  0  0
   -8.4133    8.8585  -11.2996 N   0  0  0  0  0  0  0  0  0  0  0  0
   -7.3367    9.8906   -8.0265 C   0  0  0  0  0  0  0  0  0  0  0  0
   -4.3739   13.6178  -11.5022 N   0  0  0  0  0  0  0  0  0  0  0  0
   -3.4056   14.7196  -11.5963 C   0  0  0  0  0  0  0  0  0  0  0  0
   -5.5407   13.6198  -12.1903 C   0  0  0  0  0  0  0  0  0  0  0  0
   -5.8948   14.5296  -12.9394 O   0  0  0  0  0  0  0  0  0  0  0  0
   -5.9610   10.4852   -7.7361 C   0  0  0  0  0  0  0  0  0  0  0  0
   -4.8098    9.7648   -8.0558 C   0  0  0  0  0  0  0  0  0  0  0  0
   -3.5520   10.3132   -7.8064 C   0  0  0  0  0  0  0  0  0  0  0  0
   -3.4430   11.5871   -7.2363 C   0  0  0  0  0  0  0  0  0  0  0  0
   -4.5944   12.3027   -6.9144 C   0  0  0  0  0  0  0  0  0  0  0  0
   -5.8504   11.7539   -7.1603 C   0  0  0  0  0  0  0  0  0  0  0  0
   -2.0991   12.1752   -6.9687 C   0  0  0  0  0  0  0  0  0  0  0  0
   -1.7663   13.4191   -6.4362 C   0  0  0  0  0  0  0  0  0  0  0  0
   -0.4291   13.4776   -6.3870 N   0  0  3  0  0  0  0  0  0  0  0  0
    0.1723   12.4029   -6.8190 N   0  0  0  0  0  0  0  0  0  0  0  0
   -0.8029   11.5945   -7.2007 C   0  0  0  0  0  0  0  0  0  0  0  0
    0.3904   14.5868   -5.9117 C   0  0  0  0  0  0  0  0  0  0  0  0
   -6.0966   12.3009   -9.8720 H   0  0  0  0  0  0  0  0  0  0  0  0
   -8.1900   10.1177  -13.8945 H   0  0  0  0  0  0  0  0  0  0  0  0
   -6.8945   12.2471  -14.0936 H   0  0  0  0  0  0  0  0  0  0  0  0
   -8.0374    9.6016   -7.2571 H   0  0  0  0  0  0  0  0  0  0  0  0
   -4.1641   12.8399  -10.9098 H   0  0  0  0  0  0  0  0  0  0  0  0
   -2.5387   14.5023  -10.9550 H   0  0  0  0  0  0  0  0  0  0  0  0
   -3.0724   14.8267  -12.6391 H   0  0  0  0  0  0  0  0  0  0  0  0
   -3.8811   15.6547  -11.2654 H   0  0  0  0  0  0  0  0  0  0  0  0
   -4.8927    8.7823   -8.4965 H   0  0  0  0  0  0  0  0  0  0  0  0
   -3.0309    9.6180   -7.1317 H   0  0  0  0  0  0  0  0  0  0  0  0
   -3.0255   10.3514   -8.7715 H   0  0  0  0  0  0  0  0  0  0  0  0
   -4.5126   13.2851   -6.4732 H   0  0  0  0  0  0  0  0  0  0  0  0
   -6.7407   12.3097   -6.9056 H   0  0  0  0  0  0  0  0  0  0  0  0
   -2.1564   14.2220   -7.0789 H   0  0  0  0  0  0  0  0  0  0  0  0
   -2.1866   13.5221   -5.4249 H   0  0  0  0  0  0  0  0  0  0  0  0
   -0.6455   10.6177   -7.6337 H   0  0  0  0  0  0  0  0  0  0  0  0
    1.4543   14.3214   -5.9997 H   0  0  0  0  0  0  0  0  0  0  0  0
    0.1843   15.4810   -6.5183 H   0  0  0  0  0  0  0  0  0  0  0  0
    0.1504   14.7949   -4.8586 H   0  0  0  0  0  0  0  0  0  0  0  0
  1  2  2  0  0  0  0
  1  4  1  0  0  0  0
  1 13  1  0  0  0  0
  2  6  1  0  0  0  0
  3  4  2  0  0  0  0
  3  5  1  0  0  0  0
  5  6  2  0  0  0  0
  5  9  1  0  0  0  0
  6  7  1  0  0  0  0
  7  8  1  0  0  0  0
  7 10  2  3  0  0  0
  8  9  2  0  0  0  0
 10 15  1  0  0  0  0
 11 12  1  0  0  0  0
 11 13  1  0  0  0  0
 13 14  2  0  0  0  0
 15 16  2  0  0  0  0
 15 20  1  0  0  0  0
 16 17  1  0  0  0  0
 17 18  1  0  0  0  0
 18 19  1  0  0  0  0
 18 21  2  0  0  0  0
 19 20  2  0  0  0  0
 21 22  1  0  0  0  0
 21 25  1  0  0  0  0
 22 23  1  0  0  0  0
 23 24  1  0  0  0  0
 23 26  1  0  0  0  0
 24 25  2  0  0  0  0
  2 27  1  0  0  0  0
  3 28  1  0  0  0  0
  4 29  1  0  0  0  0
 10 30  1  0  0  0  0
 11 31  1  0  0  0  0
 12 32  1  0  0  0  0
 12 33  1  0  0  0  0
 12 34  1  0  0  0  0
 16 35  1  0  0  0  0
 17 36  1  0  0  0  0
 17 37  1  0  0  0  0
 19 38  1  0  0  0  0
 20 39  1  0  0  0  0
 22 40  1  0  0  0  0
 22 41  1  0  0  0  0
 25 42  1  0  0  0  0
 26 43  1  0  0  0  0
 26 44  1  0  0  0  0
 26 45  1  0  0  0  0
M  END
> <Name>
19

> <IC50[uM]>
0.015

$$$$
19
  -OEChem-05192314333D
 Structure written by MMmdl.
 45 48  0     1  0  0  0  0  0999 V2000
   -6.3863   12.3686  -12.0106 C   0  0  0  0  0  0  0  0  0  0  0  0
   -6.5303   11.8179  -10.7351 C   0  0  0  0  0  0  0  0  0  0  0  0
   -7.7274   10.5747  -13.0322 C   0  0  0  0  0  0  0  0  0  0  0  0
   -6.9939   11.7717  -13.1290 C   0  0  0  0  0  0  0  0  0  0  0  0
   -7.8233   10.0108  -11.7572 C   0  0  0  0  0  0  0  0  0  0  0  0
   -7.2504   10.6246  -10.6026 C   0  0  0  0  0  0  0  0  0  0  0  0
   -7.6148    9.7488   -9.5126 C   0  0  0  0  0  0  0  0  0  0  0  0
   -8.2772    8.7301   -9.9866 N   0  0  0  0  0  0  0  0  0  0  0  0
   -8.4133    8.8585  -11.2996 N   0  0  0  0  0  0  0  0  0  0  0  0
   -7.3367    9.8906   -8.0265 C   0  0  0  0  0  0  0  0  0  0  0  0
   -4.3739   13.6178  -11.5022 N   0  0  0  0  0  0  0  0  0  0  0  0
   -3.4056   14.7196  -11.5963 C   0  0  0  0  0  0  0  0  0  0  0  0
   -5.5407   13.6198  -12.1903 C   0  0  0  0  0  0  0  0  0  0  0  0
   -5.8948   14.5296  -12.9394 O   0  0  0  0  0  0  0  0  0  0  0  0
   -5.9610   10.4852   -7.7361 C   0  0  0  0  0  0  0  0  0  0  0  0
   -4.8098    9.7648   -8.0558 C   0  0  0  0  0  0  0  0  0  0  0  0
   -3.5520   10.3132   -7.8064 C   0  0  0  0  0  0  0  0  0  0  0  0
   -3.4430   11.5871   -7.2363 C   0  0  0  0  0  0  0  0  0  0  0  0
   -4.5944   12.3027   -6.9144 C   0  0  0  0  0  0  0  0  0  0  0  0
   -5.8504   11.7539   -7.1603 C   0  0  0  0  0  0  0  0  0  0  0  0
   -2.0991   12.1752   -6.9687 C   0  0  0  0  0  0  0  0  0  0  0  0
   -1.7663   13.4191   -6.4362 C   0  0  0  0  0  0  0  0  0  0  0  0
   -0.4291   13.4776   -6.3870 N   0  0  3  0  0  0  0  0  0  0  0  0
    0.1723   12.4029   -6.8190 N   0  0  0  0  0  0  0  0  0  0  0  0
   -0.8029   11.5945   -7.2007 C   0  0  0  0  0  0  0  0  0  0  0  0
    0.3904   14.5868   -5.9117 C   0  0  0  0  0  0  0  0  0  0  0  0
   -6.0966   12.3009   -9.8720 H   0  0  0  0  0  0  0  0  0  0  0  0
   -8.1900   10.1177  -13.8945 H   0  0  0  0  0  0  0  0  0  0  0  0
   -6.8945   12.2471  -14.0936 H   0  0  0  0  0  0  0  0  0  0  0  0
   -8.0374    9.6016   -7.2571 H   0  0  0  0  0  0  0  0  0  0  0  0
   -2.5387   14.5023  -10.9550 H   0  0  0  0  0  0  0  0  0  0  0  0
   -3.0724   14.8267  -12.6391 H   0  0  0  0  0  0  0  0  0  0  0  0
   -3.8811   15.6547  -11.2654 H   0  0  0  0  0  0  0  0  0  0  0  0
   -5.2461   15.2234  -12.9243 H   0  0  0  0  0  0  0  0  0  0  0  0
   -5.9721   10.0288   -6.7353 H   0  0  0  0  0  0  0  0  0  0  0  0
   -4.8927    8.7823   -8.4965 H   0  0  0  0  0  0  0  0  0  0  0  0
   -2.6613    9.7546   -8.0533 H   0  0  0  0  0  0  0  0  0  0  0  0
   -4.5126   13.2851   -6.4732 H   0  0  0  0  0  0  0  0  0  0  0  0
   -6.7407   12.3097   -6.9056 H   0  0  0  0  0  0  0  0  0  0  0  0
   -2.1564   14.2220   -7.0789 H   0  0  0  0  0  0  0  0  0  0  0  0
   -2.1866   13.5221   -5.4249 H   0  0  0  0  0  0  0  0  0  0  0  0
   -0.6455   10.6177   -7.6337 H   0  0  0  0  0  0  0  0  0  0  0  0
    1.4543   14.3214   -5.9997 H   0  0  0  0  0  0  0  0  0  0  0  0
    0.1843   15.4810   -6.5183 H   0  0  0  0  0  0  0  0  0  0  0  0
    0.1504   14.7949   -4.8586 H   0  0  0  0  0  0  0  0  0  0  0  0
  1  2  2  0  0  0  0
  1  4  1  0  0  0  0
  1 13  1  0  0  0  0
  2  6  1  0  0  0  0
  3  4  2  0  0  0  0
  3  5  1  0  0  0  0
  5  6  2  0  0  0  0
  5  9  1  0  0  0  0
  6  7  1  0  0  0  0
  7  8  1  0  0  0  0
  7 10  2  3  0  0  0
  8  9  2  0  0  0  0
 10 15  1  0  0  0  0
 11 12  1  0  0  0  0
 11 13  2  0  0  0  0
 13 14  1  0  0  0  0
 15 16  1  0  0  0  0
 15 20  1  0  0  0  0
 16 17  2  0  0  0  0
 17 18  1  0  0  0  0
 18 19  1  0  0  0  0
 18 21  2  0  0  0  0
 19 20  2  0  0  0  0
 21 22  1  0  0  0  0
 21 25  1  0  0  0  0
 22 23  1  0  0  0  0
 23 24  1  0  0  0  0
 23 26  1  0  0  0  0
 24 25  2  0  0  0  0
  2 27  1  0  0  0  0
  3 28  1  0  0  0  0
  4 29  1  0  0  0  0
 10 30  1  0  0  0  0
 12 31  1  0  0  0  0
 12 32  1  0  0  0  0
 12 33  1  0  0  0  0
 14 34  1  0  0  0  0
 15 35  1  0  0  0  0
 16 36  1  0  0  0  0
 17 37  1  0  0  0  0
 19 38  1  0  0  0  0
 20 39  1  0  0  0  0
 22 40  1  0  0  0  0
 22 41  1  0  0  0  0
 25 42  1  0  0  0  0
 26 43  1  0  0  0  0
 26 44  1  0  0  0  0
 26 45  1  0  0  0  0
M  END
> <Name>
19

> <IC50[uM]>
0.015

$$$$
19
  -OEChem-05192314333D
 Structure written by MMmdl.
 45 48  0     1  0  0  0  0  0999 V2000
   -6.3863   12.3686  -12.0106 C   0  0  0  0  0  0  0  0  0  0  0  0
   -6.5303   11.8179  -10.7351 C   0  0  0  0  0  0  0  0  0  0  0  0
   -7.7274   10.5747  -13.0322 C   0  0  0  0  0  0  0  0  0  0  0  0
   -6.9939   11.7717  -13.1290 C   0  0  0  0  0  0  0  0  0  0  0  0
   -7.8233   10.0108  -11.7572 C   0  0  0  0  0  0  0  0  0  0  0  0
   -7.2504   10.6246  -10.6026 C   0  0  0  0  0  0  0  0  0  0  0  0
   -7.6148    9.7488   -9.5126 C   0  0  0  0  0  0  0  0  0  0  0  0
   -8.2772    8.7301   -9.9866 N   0  0  0  0  0  0  0  0  0  0  0  0
   -8.4133    8.8585  -11.2996 N   0  0  0  0  0  0  0  0  0  0  0  0
   -7.3367    9.8906   -8.0265 C   0  0  0  0  0  0  0  0  0  0  0  0
   -4.3739   13.6178  -11.5022 N   0  0  0  0  0  0  0  0  0  0  0  0
   -3.4056   14.7196  -11.5963 C   0  0  0  0  0  0  0  0  0  0  0  0
   -5.5407   13.6198  -12.1903 C   0  0  0  0  0  0  0  0  0  0  0  0
   -5.8948   14.5296  -12.9394 O   0  0  0  0  0  0  0  0  0  0  0  0
   -5.9610   10.4852   -7.7361 C   0  0  0  0  0  0  0  0  0  0  0  0
   -4.8098    9.7648   -8.0558 C   0  0  0  0  0  0  0  0  0  0  0  0
   -3.5520   10.3132   -7.8064 C   0  0  0  0  0  0  0  0  0  0  0  0
   -3.4430   11.5871   -7.2363 C   0  0  0  0  0  0  0  0  0  0  0  0
   -4.5944   12.3027   -6.9144 C   0  0  0  0  0  0  0  0  0  0  0  0
   -5.8504   11.7539   -7.1603 C   0  0  0  0  0  0  0  0  0  0  0  0
   -2.0991   12.1752   -6.9687 C   0  0  0  0  0  0  0  0  0  0  0  0
   -1.7663   13.4191   -6.4362 C   0  0  0  0  0  0  0  0  0  0  0  0
   -0.4291   13.4776   -6.3870 N   0  0  3  0  0  0  0  0  0  0  0  0
    0.1723   12.4029   -6.8190 N   0  0  0  0  0  0  0  0  0  0  0  0
   -0.8029   11.5945   -7.2007 C   0  0  0  0  0  0  0  0  0  0  0  0
    0.3904   14.5868   -5.9117 C   0  0  0  0  0  0  0  0  0  0  0  0
   -6.0966   12.3009   -9.8720 H   0  0  0  0  0  0  0  0  0  0  0  0
   -8.1900   10.1177  -13.8945 H   0  0  0  0  0  0  0  0  0  0  0  0
   -6.8945   12.2471  -14.0936 H   0  0  0  0  0  0  0  0  0  0  0  0
   -8.0374    9.6016   -7.2571 H   0  0  0  0  0  0  0  0  0  0  0  0
   -2.5387   14.5023  -10.9550 H   0  0  0  0  0  0  0  0  0  0  0  0
   -3.0724   14.8267  -12.6391 H   0  0  0  0  0  0  0  0  0  0  0  0
   -3.8811   15.6547  -11.2654 H   0  0  0  0  0  0  0  0  0  0  0  0
   -5.2461   15.2234  -12.9243 H   0  0  0  0  0  0  0  0  0  0  0  0
   -4.8927    8.7823   -8.4965 H   0  0  0  0  0  0  0  0  0  0  0  0
   -3.0309    9.6180   -7.1317 H   0  0  0  0  0  0  0  0  0  0  0  0
   -3.0255   10.3514   -8.7715 H   0  0  0  0  0  0  0  0  0  0  0  0
   -4.5126   13.2851   -6.4732 H   0  0  0  0  0  0  0  0  0  0  0  0
   -6.7407   12.3097   -6.9056 H   0  0  0  0  0  0  0  0  0  0  0  0
   -2.1564   14.2220   -7.0789 H   0  0  0  0  0  0  0  0  0  0  0  0
   -2.1866   13.5221   -5.4249 H   0  0  0  0  0  0  0  0  0  0  0  0
   -0.6455   10.6177   -7.6337 H   0  0  0  0  0  0  0  0  0  0  0  0
    1.4543   14.3214   -5.9997 H   0  0  0  0  0  0  0  0  0  0  0  0
    0.1843   15.4810   -6.5183 H   0  0  0  0  0  0  0  0  0  0  0  0
    0.1504   14.7949   -4.8586 H   0  0  0  0  0  0  0  0  0  0  0  0
  1  2  2  0  0  0  0
  1  4  1  0  0  0  0
  1 13  1  0  0  0  0
  2  6  1  0  0  0  0
  3  4  2  0  0  0  0
  3  5  1  0  0  0  0
  5  6  2  0  0  0  0
  5  9  1  0  0  0  0
  6  7  1  0  0  0  0
  7  8  1  0  0  0  0
  7 10  2  3  0  0  0
  8  9  2  0  0  0  0
 10 15  1  0  0  0  0
 11 12  1  0  0  0  0
 11 13  2  0  0  0  0
 13 14  1  0  0  0  0
 15 16  2  0  0  0  0
 15 20  1  0  0  0  0
 16 17  1  0  0  0  0
 17 18  1  0  0  0  0
 18 19  1  0  0  0  0
 18 21  2  0  0  0  0
 19 20  2  0  0  0  0
 21 22  1  0  0  0  0
 21 25  1  0  0  0  0
 22 23  1  0  0  0  0
 23 24  1  0  0  0  0
 23 26  1  0  0  0  0
 24 25  2  0  0  0  0
  2 27  1  0  0  0  0
  3 28  1  0  0  0  0
  4 29  1  0  0  0  0
 10 30  1  0  0  0  0
 12 31  1  0  0  0  0
 12 32  1  0  0  0  0
 12 33  1  0  0  0  0
 14 34  1  0  0  0  0
 16 35  1  0  0  0  0
 17 36  1  0  0  0  0
 17 37  1  0  0  0  0
 19 38  1  0  0  0  0
 20 39  1  0  0  0  0
 22 40  1  0  0  0  0
 22 41  1  0  0  0  0
 25 42  1  0  0  0  0
 26 43  1  0  0  0  0
 26 44  1  0  0  0  0
 26 45  1  0  0  0  0
M  END
> <Name>
19

> <IC50[uM]>
0.015

$$$$
19
  -OEChem-05192314333D
 Structure written by MMmdl.
 45 48  0     1  0  0  0  0  0999 V2000
   -6.3863   12.3686  -12.0106 C   0  0  3  0  0  0  0  0  0  0  0  0
   -6.5303   11.8179  -10.7351 C   0  0  0  0  0  0  0  0  0  0  0  0
   -7.7274   10.5747  -13.0322 C   0  0  0  0  0  0  0  0  0  0  0  0
   -6.9939   11.7717  -13.1290 C   0  0  0  0  0  0  0  0  0  0  0  0
   -7.8233   10.0108  -11.7572 C   0  0  0  0  0  0  0  0  0  0  0  0
   -7.2504   10.6246  -10.6026 C   0  0  0  0  0  0  0  0  0  0  0  0
   -7.6148    9.7488   -9.5126 C   0  0  0  0  0  0  0  0  0  0  0  0
   -8.2772    8.7301   -9.9866 N   0  0  0  0  0  0  0  0  0  0  0  0
   -8.4133    8.8585  -11.2996 N   0  0  0  0  0  0  0  0  0  0  0  0
   -7.3367    9.8906   -8.0265 C   0  0  0  0  0  0  0  0  0  0  0  0
   -4.3739   13.6178  -11.5022 N   0  0  0  0  0  0  0  0  0  0  0  0
   -3.4056   14.7196  -11.5963 C   0  0  0  0  0  0  0  0  0  0  0  0
   -5.5407   13.6198  -12.1903 C   0  0  0  0  0  0  0  0  0  0  0  0
   -5.8948   14.5296  -12.9394 O   0  0  0  0  0  0  0  0  0  0  0  0
   -5.9610   10.4852   -7.7361 C   0  0  0  0  0  0  0  0  0  0  0  0
   -4.8098    9.7648   -8.0558 C   0  0  0  0  0  0  0  0  0  0  0  0
   -3.5520   10.3132   -7.8064 C   0  0  0  0  0  0  0  0  0  0  0  0
   -3.4430   11.5871   -7.2363 C   0  0  0  0  0  0  0  0  0  0  0  0
   -4.5944   12.3027   -6.9144 C   0  0  0  0  0  0  0  0  0  0  0  0
   -5.8504   11.7539   -7.1603 C   0  0  0  0  0  0  0  0  0  0  0  0
   -2.0991   12.1752   -6.9687 C   0  0  0  0  0  0  0  0  0  0  0  0
   -1.7663   13.4191   -6.4362 C   0  0  0  0  0  0  0  0  0  0  0  0
   -0.4291   13.4776   -6.3870 N   0  0  3  0  0  0  0  0  0  0  0  0
    0.1723   12.4029   -6.8190 N   0  0  0  0  0  0  0  0  0  0  0  0
   -0.8029   11.5945   -7.2007 C   0  0  0  0  0  0  0  0  0  0  0  0
    0.3904   14.5868   -5.9117 C   0  0  0  0  0  0  0  0  0  0  0  0
   -7.2799   12.9895  -11.8495 H   0  0  0  0  0  0  0  0  0  0  0  0
   -6.0966   12.3009   -9.8720 H   0  0  0  0  0  0  0  0  0  0  0  0
   -8.1900   10.1177  -13.8945 H   0  0  0  0  0  0  0  0  0  0  0  0
   -6.8945   12.2471  -14.0936 H   0  0  0  0  0  0  0  0  0  0  0  0
   -8.0374    9.6016   -7.2571 H   0  0  0  0  0  0  0  0  0  0  0  0
   -4.1641   12.8399  -10.9098 H   0  0  0  0  0  0  0  0  0  0  0  0
   -2.5387   14.5023  -10.9550 H   0  0  0  0  0  0  0  0  0  0  0  0
   -3.0724   14.8267  -12.6391 H   0  0  0  0  0  0  0  0  0  0  0  0
   -3.8811   15.6547  -11.2654 H   0  0  0  0  0  0  0  0  0  0  0  0
   -4.8927    8.7823   -8.4965 H   0  0  0  0  0  0  0  0  0  0  0  0
   -2.6613    9.7546   -8.0533 H   0  0  0  0  0  0  0  0  0  0  0  0
   -4.5126   13.2851   -6.4732 H   0  0  0  0  0  0  0  0  0  0  0  0
   -6.7407   12.3097   -6.9056 H   0  0  0  0  0  0  0  0  0  0  0  0
   -2.1564   14.2220   -7.0789 H   0  0  0  0  0  0  0  0  0  0  0  0
   -2.1866   13.5221   -5.4249 H   0  0  0  0  0  0  0  0  0  0  0  0
   -0.6455   10.6177   -7.6337 H   0  0  0  0  0  0  0  0  0  0  0  0
    1.4543   14.3214   -5.9997 H   0  0  0  0  0  0  0  0  0  0  0  0
    0.1843   15.4810   -6.5183 H   0  0  0  0  0  0  0  0  0  0  0  0
    0.1504   14.7949   -4.8586 H   0  0  0  0  0  0  0  0  0  0  0  0
  1  2  1  0  0  0  0
  1  4  1  0  0  0  0
  1 13  1  0  0  0  0
  2  6  2  0  0  0  0
  3  4  2  0  0  0  0
  3  5  1  0  0  0  0
  5  6  1  0  0  0  0
  5  9  2  0  0  0  0
  6  7  1  0  0  0  0
  7  8  2  0  0  0  0
  7 10  1  0  0  0  0
  8  9  1  0  0  0  0
 10 15  2  0  0  0  0
 11 12  1  0  0  0  0
 11 13  1  0  0  0  0
 13 14  2  0  0  0  0
 15 16  1  0  0  0  0
 15 20  1  0  0  0  0
 16 17  2  0  0  0  0
 17 18  1  0  0  0  0
 18 19  1  0  0  0  0
 18 21  2  0  0  0  0
 19 20  2  0  0  0  0
 21 22  1  0  0  0  0
 21 25  1  0  0  0  0
 22 23  1  0  0  0  0
 23 24  1  0  0  0  0
 23 26  1  0  0  0  0
 24 25  2  0  0  0  0
  1 27  1  0  0  0  0
  2 28  1  0  0  0  0
  3 29  1  0  0  0  0
  4 30  1  0  0  0  0
 10 31  1  0  0  0  0
 11 32  1  0  0  0  0
 12 33  1  0  0  0  0
 12 34  1  0  0  0  0
 12 35  1  0  0  0  0
 16 36  1  0  0  0  0
 17 37  1  0  0  0  0
 19 38  1  0  0  0  0
 20 39  1  0  0  0  0
 22 40  1  0  0  0  0
 22 41  1  0  0  0  0
 25 42  1  0  0  0  0
 26 43  1  0  0  0  0
 26 44  1  0  0  0  0
 26 45  1  0  0  0  0
M  END
> <Name>
19

> <IC50[uM]>
0.015

$$$$
19
  -OEChem-05192314333D
 Structure written by MMmdl.
 45 48  0     1  0  0  0  0  0999 V2000
   -6.3863   12.3686  -12.0106 C   0  0  0  0  0  0  0  0  0  0  0  0
   -6.5303   11.8179  -10.7351 C   0  0  0  0  0  0  0  0  0  0  0  0
   -7.7274   10.5747  -13.0322 C   0  0  0  0  0  0  0  0  0  0  0  0
   -6.9939   11.7717  -13.1290 C   0  0  0  0  0  0  0  0  0  0  0  0
   -7.8233   10.0108  -11.7572 C   0  0  0  0  0  0  0  0  0  0  0  0
   -7.2504   10.6246  -10.6026 C   0  0  3  0  0  0  0  0  0  0  0  0
   -7.6148    9.7488   -9.5126 C   0  0  0  0  0  0  0  0  0  0  0  0
   -8.2772    8.7301   -9.9866 N   0  0  0  0  0  0  0  0  0  0  0  0
   -8.4133    8.8585  -11.2996 N   0  0  0  0  0  0  0  0  0  0  0  0
   -7.3367    9.8906   -8.0265 C   0  0  0  0  0  0  0  0  0  0  0  0
   -4.3739   13.6178  -11.5022 N   0  0  0  0  0  0  0  0  0  0  0  0
   -3.4056   14.7196  -11.5963 C   0  0  0  0  0  0  0  0  0  0  0  0
   -5.5407   13.6198  -12.1903 C   0  0  0  0  0  0  0  0  0  0  0  0
   -5.8948   14.5296  -12.9394 O   0  0  0  0  0  0  0  0  0  0  0  0
   -5.9610   10.4852   -7.7361 C   0  0  0  0  0  0  0  0  0  0  0  0
   -4.8098    9.7648   -8.0558 C   0  0  0  0  0  0  0  0  0  0  0  0
   -3.5520   10.3132   -7.8064 C   0  0  0  0  0  0  0  0  0  0  0  0
   -3.4430   11.5871   -7.2363 C   0  0  0  0  0  0  0  0  0  0  0  0
   -4.5944   12.3027   -6.9144 C   0  0  0  0  0  0  0  0  0  0  0  0
   -5.8504   11.7539   -7.1603 C   0  0  0  0  0  0  0  0  0  0  0  0
   -2.0991   12.1752   -6.9687 C   0  0  0  0  0  0  0  0  0  0  0  0
   -1.7663   13.4191   -6.4362 C   0  0  0  0  0  0  0  0  0  0  0  0
   -0.4291   13.4776   -6.3870 N   0  0  3  0  0  0  0  0  0  0  0  0
    0.1723   12.4029   -6.8190 N   0  0  0  0  0  0  0  0  0  0  0  0
   -0.8029   11.5945   -7.2007 C   0  0  0  0  0  0  0  0  0  0  0  0
    0.3904   14.5868   -5.9117 C   0  0  0  0  0  0  0  0  0  0  0  0
   -6.0966   12.3009   -9.8720 H   0  0  0  0  0  0  0  0  0  0  0  0
   -8.1900   10.1177  -13.8945 H   0  0  0  0  0  0  0  0  0  0  0  0
   -6.8945   12.2471  -14.0936 H   0  0  0  0  0  0  0  0  0  0  0  0
   -6.3254   10.0493  -10.7557 H   0  0  0  0  0  0  0  0  0  0  0  0
   -8.0374    9.6016   -7.2571 H   0  0  0  0  0  0  0  0  0  0  0  0
   -4.1641   12.8399  -10.9098 H   0  0  0  0  0  0  0  0  0  0  0  0
   -2.5387   14.5023  -10.9550 H   0  0  0  0  0  0  0  0  0  0  0  0
   -3.0724   14.8267  -12.6391 H   0  0  0  0  0  0  0  0  0  0  0  0
   -3.8811   15.6547  -11.2654 H   0  0  0  0  0  0  0  0  0  0  0  0
   -4.8927    8.7823   -8.4965 H   0  0  0  0  0  0  0  0  0  0  0  0
   -2.6613    9.7546   -8.0533 H   0  0  0  0  0  0  0  0  0  0  0  0
   -4.5126   13.2851   -6.4732 H   0  0  0  0  0  0  0  0  0  0  0  0
   -6.7407   12.3097   -6.9056 H   0  0  0  0  0  0  0  0  0  0  0  0
   -2.1564   14.2220   -7.0789 H   0  0  0  0  0  0  0  0  0  0  0  0
   -2.1866   13.5221   -5.4249 H   0  0  0  0  0  0  0  0  0  0  0  0
   -0.6455   10.6177   -7.6337 H   0  0  0  0  0  0  0  0  0  0  0  0
    1.4543   14.3214   -5.9997 H   0  0  0  0  0  0  0  0  0  0  0  0
    0.1843   15.4810   -6.5183 H   0  0  0  0  0  0  0  0  0  0  0  0
    0.1504   14.7949   -4.8586 H   0  0  0  0  0  0  0  0  0  0  0  0
  1  2  2  0  0  0  0
  1  4  1  0  0  0  0
  1 13  1  0  0  0  0
  2  6  1  0  0  0  0
  3  4  2  0  0  0  0
  3  5  1  0  0  0  0
  5  6  1  0  0  0  0
  5  9  2  0  0  0  0
  6  7  1  0  0  0  0
  7  8  2  0  0  0  0
  7 10  1  0  0  0  0
  8  9  1  0  0  0  0
 10 15  2  0  0  0  0
 11 12  1  0  0  0  0
 11 13  1  0  0  0  0
 13 14  2  0  0  0  0
 15 16  1  0  0  0  0
 15 20  1  0  0  0  0
 16 17  2  0  0  0  0
 17 18  1  0  0  0  0
 18 19  1  0  0  0  0
 18 21  2  0  0  0  0
 19 20  2  0  0  0  0
 21 22  1  0  0  0  0
 21 25  1  0  0  0  0
 22 23  1  0  0  0  0
 23 24  1  0  0  0  0
 23 26  1  0  0  0  0
 24 25  2  0  0  0  0
  2 27  1  0  0  0  0
  3 28  1  0  0  0  0
  4 29  1  0  0  0  0
  6 30  1  0  0  0  0
 10 31  1  0  0  0  0
 11 32  1  0  0  0  0
 12 33  1  0  0  0  0
 12 34  1  0  0  0  0
 12 35  1  0  0  0  0
 16 36  1  0  0  0  0
 17 37  1  0  0  0  0
 19 38  1  0  0  0  0
 20 39  1  0  0  0  0
 22 40  1  0  0  0  0
 22 41  1  0  0  0  0
 25 42  1  0  0  0  0
 26 43  1  0  0  0  0
 26 44  1  0  0  0  0
 26 45  1  0  0  0  0
M  END
> <Name>
19

> <IC50[uM]>
0.015

$$$$
19
  -OEChem-05192314333D
 Structure written by MMmdl.
 45 48  0     1  0  0  0  0  0999 V2000
   -6.3863   12.3686  -12.0106 C   0  0  0  0  0  0  0  0  0  0  0  0
   -6.5303   11.8179  -10.7351 C   0  0  0  0  0  0  0  0  0  0  0  0
   -7.7274   10.5747  -13.0322 C   0  0  0  0  0  0  0  0  0  0  0  0
   -6.9939   11.7717  -13.1290 C   0  0  0  0  0  0  0  0  0  0  0  0
   -7.8233   10.0108  -11.7572 C   0  0  0  0  0  0  0  0  0  0  0  0
   -7.2504   10.6246  -10.6026 C   0  0  0  0  0  0  0  0  0  0  0  0
   -7.6148    9.7488   -9.5126 C   0  0  0  0  0  0  0  0  0  0  0  0
   -8.2772    8.7301   -9.9866 N   0  0  0  0  0  0  0  0  0  0  0  0
   -8.4133    8.8585  -11.2996 N   0  0  0  0  0  0  0  0  0  0  0  0
   -7.3367    9.8906   -8.0265 C   0  0  0  0  0  0  0  0  0  0  0  0
   -4.3739   13.6178  -11.5022 N   0  0  0  0  0  0  0  0  0  0  0  0
   -3.4056   14.7196  -11.5963 C   0  0  0  0  0  0  0  0  0  0  0  0
   -5.5407   13.6198  -12.1903 C   0  0  0  0  0  0  0  0  0  0  0  0
   -5.8948   14.5296  -12.9394 O   0  0  0  0  0  0  0  0  0  0  0  0
   -5.9610   10.4852   -7.7361 C   0  0  0  0  0  0  0  0  0  0  0  0
   -4.8098    9.7648   -8.0558 C   0  0  0  0  0  0  0  0  0  0  0  0
   -3.5520   10.3132   -7.8064 C   0  0  0  0  0  0  0  0  0  0  0  0
   -3.4430   11.5871   -7.2363 C   0  0  0  0  0  0  0  0  0  0  0  0
   -4.5944   12.3027   -6.9144 C   0  0  0  0  0  0  0  0  0  0  0  0
   -5.8504   11.7539   -7.1603 C   0  0  0  0  0  0  0  0  0  0  0  0
   -2.0991   12.1752   -6.9687 C   0  0  0  0  0  0  0  0  0  0  0  0
   -1.7663   13.4191   -6.4362 C   0  0  0  0  0  0  0  0  0  0  0  0
   -0.4291   13.4776   -6.3870 N   0  0  3  0  0  0  0  0  0  0  0  0
    0.1723   12.4029   -6.8190 N   0  0  0  0  0  0  0  0  0  0  0  0
   -0.8029   11.5945   -7.2007 C   0  0  0  0  0  0  0  0  0  0  0  0
    0.3904   14.5868   -5.9117 C   0  0  0  0  0  0  0  0  0  0  0  0
   -6.0966   12.3009   -9.8720 H   0  0  0  0  0  0  0  0  0  0  0  0
   -8.7487   10.7774  -13.3871 H   0  0  0  0  0  0  0  0  0  0  0  0
   -7.2503    9.8346  -13.6914 H   0  0  0  0  0  0  0  0  0  0  0  0
   -6.8945   12.2471  -14.0936 H   0  0  0  0  0  0  0  0  0  0  0  0
   -8.0374    9.6016   -7.2571 H   0  0  0  0  0  0  0  0  0  0  0  0
   -4.1641   12.8399  -10.9098 H   0  0  0  0  0  0  0  0  0  0  0  0
   -2.5387   14.5023  -10.9550 H   0  0  0  0  0  0  0  0  0  0  0  0
   -3.0724   14.8267  -12.6391 H   0  0  0  0  0  0  0  0  0  0  0  0
   -3.8811   15.6547  -11.2654 H   0  0  0  0  0  0  0  0  0  0  0  0
   -4.8927    8.7823   -8.4965 H   0  0  0  0  0  0  0  0  0  0  0  0
   -2.6613    9.7546   -8.0533 H   0  0  0  0  0  0  0  0  0  0  0  0
   -4.5126   13.2851   -6.4732 H   0  0  0  0  0  0  0  0  0  0  0  0
   -6.7407   12.3097   -6.9056 H   0  0  0  0  0  0  0  0  0  0  0  0
   -2.1564   14.2220   -7.0789 H   0  0  0  0  0  0  0  0  0  0  0  0
   -2.1866   13.5221   -5.4249 H   0  0  0  0  0  0  0  0  0  0  0  0
   -0.6455   10.6177   -7.6337 H   0  0  0  0  0  0  0  0  0  0  0  0
    1.4543   14.3214   -5.9997 H   0  0  0  0  0  0  0  0  0  0  0  0
    0.1843   15.4810   -6.5183 H   0  0  0  0  0  0  0  0  0  0  0  0
    0.1504   14.7949   -4.8586 H   0  0  0  0  0  0  0  0  0  0  0  0
  1  2  1  0  0  0  0
  1  4  2  0  0  0  0
  1 13  1  0  0  0  0
  2  6  2  0  0  0  0
  3  4  1  0  0  0  0
  3  5  1  0  0  0  0
  5  6  1  0  0  0  0
  5  9  2  0  0  0  0
  6  7  1  0  0  0  0
  7  8  2  0  0  0  0
  7 10  1  0  0  0  0
  8  9  1  0  0  0  0
 10 15  2  0  0  0  0
 11 12  1  0  0  0  0
 11 13  1  0  0  0  0
 13 14  2  0  0  0  0
 15 16  1  0  0  0  0
 15 20  1  0  0  0  0
 16 17  2  0  0  0  0
 17 18  1  0  0  0  0
 18 19  1  0  0  0  0
 18 21  2  0  0  0  0
 19 20  2  0  0  0  0
 21 22  1  0  0  0  0
 21 25  1  0  0  0  0
 22 23  1  0  0  0  0
 23 24  1  0  0  0  0
 23 26  1  0  0  0  0
 24 25  2  0  0  0  0
  2 27  1  0  0  0  0
  3 28  1  0  0  0  0
  3 29  1  0  0  0  0
  4 30  1  0  0  0  0
 10 31  1  0  0  0  0
 11 32  1  0  0  0  0
 12 33  1  0  0  0  0
 12 34  1  0  0  0  0
 12 35  1  0  0  0  0
 16 36  1  0  0  0  0
 17 37  1  0  0  0  0
 19 38  1  0  0  0  0
 20 39  1  0  0  0  0
 22 40  1  0  0  0  0
 22 41  1  0  0  0  0
 25 42  1  0  0  0  0
 26 43  1  0  0  0  0
 26 44  1  0  0  0  0
 26 45  1  0  0  0  0
M  END
> <Name>
19

> <IC50[uM]>
0.015

$$$$
19
  -OEChem-05192314333D
 Structure written by MMmdl.
 45 48  0     1  0  0  0  0  0999 V2000
   -6.3863   12.3686  -12.0106 C   0  0  3  0  0  0  0  0  0  0  0  0
   -6.5303   11.8179  -10.7351 C   0  0  0  0  0  0  0  0  0  0  0  0
   -7.7274   10.5747  -13.0322 C   0  0  0  0  0  0  0  0  0  0  0  0
   -6.9939   11.7717  -13.1290 C   0  0  0  0  0  0  0  0  0  0  0  0
   -7.8233   10.0108  -11.7572 C   0  0  0  0  0  0  0  0  0  0  0  0
   -7.2504   10.6246  -10.6026 C   0  0  0  0  0  0  0  0  0  0  0  0
   -7.6148    9.7488   -9.5126 C   0  0  0  0  0  0  0  0  0  0  0  0
   -8.2772    8.7301   -9.9866 N   0  0  0  0  0  0  0  0  0  0  0  0
   -8.4133    8.8585  -11.2996 N   0  0  0  0  0  0  0  0  0  0  0  0
   -7.3367    9.8906   -8.0265 C   0  0  0  0  0  0  0  0  0  0  0  0
   -4.3739   13.6178  -11.5022 N   0  0  0  0  0  0  0  0  0  0  0  0
   -3.4056   14.7196  -11.5963 C   0  0  0  0  0  0  0  0  0  0  0  0
   -5.5407   13.6198  -12.1903 C   0  0  0  0  0  0  0  0  0  0  0  0
   -5.8948   14.5296  -12.9394 O   0  0  0  0  0  0  0  0  0  0  0  0
   -5.9610   10.4852   -7.7361 C   0  0  0  0  0  0  0  0  0  0  0  0
   -4.8098    9.7648   -8.0558 C   0  0  0  0  0  0  0  0  0  0  0  0
   -3.5520   10.3132   -7.8064 C   0  0  0  0  0  0  0  0  0  0  0  0
   -3.4430   11.5871   -7.2363 C   0  0  0  0  0  0  0  0  0  0  0  0
   -4.5944   12.3027   -6.9144 C   0  0  0  0  0  0  0  0  0  0  0  0
   -5.8504   11.7539   -7.1603 C   0  0  0  0  0  0  0  0  0  0  0  0
   -2.0991   12.1752   -6.9687 C   0  0  0  0  0  0  0  0  0  0  0  0
   -1.7663   13.4191   -6.4362 C   0  0  0  0  0  0  0  0  0  0  0  0
   -0.4291   13.4776   -6.3870 N   0  0  3  0  0  0  0  0  0  0  0  0
    0.1723   12.4029   -6.8190 N   0  0  0  0  0  0  0  0  0  0  0  0
   -0.8029   11.5945   -7.2007 C   0  0  0  0  0  0  0  0  0  0  0  0
    0.3904   14.5868   -5.9117 C   0  0  0  0  0  0  0  0  0  0  0  0
   -7.2799   12.9895  -11.8495 H   0  0  0  0  0  0  0  0  0  0  0  0
   -6.0966   12.3009   -9.8720 H   0  0  0  0  0  0  0  0  0  0  0  0
   -8.1900   10.1177  -13.8945 H   0  0  0  0  0  0  0  0  0  0  0  0
   -6.8945   12.2471  -14.0936 H   0  0  0  0  0  0  0  0  0  0  0  0
   -8.0374    9.6016   -7.2571 H   0  0  0  0  0  0  0  0  0  0  0  0
   -2.5387   14.5023  -10.9550 H   0  0  0  0  0  0  0  0  0  0  0  0
   -3.0724   14.8267  -12.6391 H   0  0  0  0  0  0  0  0  0  0  0  0
   -3.8811   15.6547  -11.2654 H   0  0  0  0  0  0  0  0  0  0  0  0
   -5.2461   15.2234  -12.9243 H   0  0  0  0  0  0  0  0  0  0  0  0
   -4.8927    8.7823   -8.4965 H   0  0  0  0  0  0  0  0  0  0  0  0
   -2.6613    9.7546   -8.0533 H   0  0  0  0  0  0  0  0  0  0  0  0
   -4.5126   13.2851   -6.4732 H   0  0  0  0  0  0  0  0  0  0  0  0
   -6.7407   12.3097   -6.9056 H   0  0  0  0  0  0  0  0  0  0  0  0
   -2.1564   14.2220   -7.0789 H   0  0  0  0  0  0  0  0  0  0  0  0
   -2.1866   13.5221   -5.4249 H   0  0  0  0  0  0  0  0  0  0  0  0
   -0.6455   10.6177   -7.6337 H   0  0  0  0  0  0  0  0  0  0  0  0
    1.4543   14.3214   -5.9997 H   0  0  0  0  0  0  0  0  0  0  0  0
    0.1843   15.4810   -6.5183 H   0  0  0  0  0  0  0  0  0  0  0  0
    0.1504   14.7949   -4.8586 H   0  0  0  0  0  0  0  0  0  0  0  0
  1  2  1  0  0  0  0
  1  4  1  0  0  0  0
  1 13  1  0  0  0  0
  2  6  2  0  0  0  0
  3  4  2  0  0  0  0
  3  5  1  0  0  0  0
  5  6  1  0  0  0  0
  5  9  2  0  0  0  0
  6  7  1  0  0  0  0
  7  8  2  0  0  0  0
  7 10  1  0  0  0  0
  8  9  1  0  0  0  0
 10 15  2  0  0  0  0
 11 12  1  0  0  0  0
 11 13  2  0  0  0  0
 13 14  1  0  0  0  0
 15 16  1  0  0  0  0
 15 20  1  0  0  0  0
 16 17  2  0  0  0  0
 17 18  1  0  0  0  0
 18 19  1  0  0  0  0
 18 21  2  0  0  0  0
 19 20  2  0  0  0  0
 21 22  1  0  0  0  0
 21 25  1  0  0  0  0
 22 23  1  0  0  0  0
 23 24  1  0  0  0  0
 23 26  1  0  0  0  0
 24 25  2  0  0  0  0
  1 27  1  0  0  0  0
  2 28  1  0  0  0  0
  3 29  1  0  0  0  0
  4 30  1  0  0  0  0
 10 31  1  0  0  0  0
 12 32  1  0  0  0  0
 12 33  1  0  0  0  0
 12 34  1  0  0  0  0
 14 35  1  0  0  0  0
 16 36  1  0  0  0  0
 17 37  1  0  0  0  0
 19 38  1  0  0  0  0
 20 39  1  0  0  0  0
 22 40  1  0  0  0  0
 22 41  1  0  0  0  0
 25 42  1  0  0  0  0
 26 43  1  0  0  0  0
 26 44  1  0  0  0  0
 26 45  1  0  0  0  0
M  END
> <Name>
19

> <IC50[uM]>
0.015

$$$$
19
  -OEChem-05192314333D
 Structure written by MMmdl.
 45 48  0     1  0  0  0  0  0999 V2000
   -6.3863   12.3686  -12.0106 C   0  0  0  0  0  0  0  0  0  0  0  0
   -6.5303   11.8179  -10.7351 C   0  0  0  0  0  0  0  0  0  0  0  0
   -7.7274   10.5747  -13.0322 C   0  0  0  0  0  0  0  0  0  0  0  0
   -6.9939   11.7717  -13.1290 C   0  0  0  0  0  0  0  0  0  0  0  0
   -7.8233   10.0108  -11.7572 C   0  0  0  0  0  0  0  0  0  0  0  0
   -7.2504   10.6246  -10.6026 C   0  0  3  0  0  0  0  0  0  0  0  0
   -7.6148    9.7488   -9.5126 C   0  0  0  0  0  0  0  0  0  0  0  0
   -8.2772    8.7301   -9.9866 N   0  0  0  0  0  0  0  0  0  0  0  0
   -8.4133    8.8585  -11.2996 N   0  0  0  0  0  0  0  0  0  0  0  0
   -7.3367    9.8906   -8.0265 C   0  0  0  0  0  0  0  0  0  0  0  0
   -4.3739   13.6178  -11.5022 N   0  0  0  0  0  0  0  0  0  0  0  0
   -3.4056   14.7196  -11.5963 C   0  0  0  0  0  0  0  0  0  0  0  0
   -5.5407   13.6198  -12.1903 C   0  0  0  0  0  0  0  0  0  0  0  0
   -5.8948   14.5296  -12.9394 O   0  0  0  0  0  0  0  0  0  0  0  0
   -5.9610   10.4852   -7.7361 C   0  0  0  0  0  0  0  0  0  0  0  0
   -4.8098    9.7648   -8.0558 C   0  0  0  0  0  0  0  0  0  0  0  0
   -3.5520   10.3132   -7.8064 C   0  0  0  0  0  0  0  0  0  0  0  0
   -3.4430   11.5871   -7.2363 C   0  0  0  0  0  0  0  0  0  0  0  0
   -4.5944   12.3027   -6.9144 C   0  0  0  0  0  0  0  0  0  0  0  0
   -5.8504   11.7539   -7.1603 C   0  0  0  0  0  0  0  0  0  0  0  0
   -2.0991   12.1752   -6.9687 C   0  0  0  0  0  0  0  0  0  0  0  0
   -1.7663   13.4191   -6.4362 C   0  0  0  0  0  0  0  0  0  0  0  0
   -0.4291   13.4776   -6.3870 N   0  0  3  0  0  0  0  0  0  0  0  0
    0.1723   12.4029   -6.8190 N   0  0  0  0  0  0  0  0  0  0  0  0
   -0.8029   11.5945   -7.2007 C   0  0  0  0  0  0  0  0  0  0  0  0
    0.3904   14.5868   -5.9117 C   0  0  0  0  0  0  0  0  0  0  0  0
   -6.0966   12.3009   -9.8720 H   0  0  0  0  0  0  0  0  0  0  0  0
   -8.1900   10.1177  -13.8945 H   0  0  0  0  0  0  0  0  0  0  0  0
   -6.8945   12.2471  -14.0936 H   0  0  0  0  0  0  0  0  0  0  0  0
   -6.3254   10.0493  -10.7557 H   0  0  0  0  0  0  0  0  0  0  0  0
   -8.0374    9.6016   -7.2571 H   0  0  0  0  0  0  0  0  0  0  0  0
   -2.5387   14.5023  -10.9550 H   0  0  0  0  0  0  0  0  0  0  0  0
   -3.0724   14.8267  -12.6391 H   0  0  0  0  0  0  0  0  0  0  0  0
   -3.8811   15.6547  -11.2654 H   0  0  0  0  0  0  0  0  0  0  0  0
   -5.2461   15.2234  -12.9243 H   0  0  0  0  0  0  0  0  0  0  0  0
   -4.8927    8.7823   -8.4965 H   0  0  0  0  0  0  0  0  0  0  0  0
   -2.6613    9.7546   -8.0533 H   0  0  0  0  0  0  0  0  0  0  0  0
   -4.5126   13.2851   -6.4732 H   0  0  0  0  0  0  0  0  0  0  0  0
   -6.7407   12.3097   -6.9056 H   0  0  0  0  0  0  0  0  0  0  0  0
   -2.1564   14.2220   -7.0789 H   0  0  0  0  0  0  0  0  0  0  0  0
   -2.1866   13.5221   -5.4249 H   0  0  0  0  0  0  0  0  0  0  0  0
   -0.6455   10.6177   -7.6337 H   0  0  0  0  0  0  0  0  0  0  0  0
    1.4543   14.3214   -5.9997 H   0  0  0  0  0  0  0  0  0  0  0  0
    0.1843   15.4810   -6.5183 H   0  0  0  0  0  0  0  0  0  0  0  0
    0.1504   14.7949   -4.8586 H   0  0  0  0  0  0  0  0  0  0  0  0
  1  2  2  0  0  0  0
  1  4  1  0  0  0  0
  1 13  1  0  0  0  0
  2  6  1  0  0  0  0
  3  4  2  0  0  0  0
  3  5  1  0  0  0  0
  5  6  1  0  0  0  0
  5  9  2  0  0  0  0
  6  7  1  0  0  0  0
  7  8  2  0  0  0  0
  7 10  1  0  0  0  0
  8  9  1  0  0  0  0
 10 15  2  0  0  0  0
 11 12  1  0  0  0  0
 11 13  2  0  0  0  0
 13 14  1  0  0  0  0
 15 16  1  0  0  0  0
 15 20  1  0  0  0  0
 16 17  2  0  0  0  0
 17 18  1  0  0  0  0
 18 19  1  0  0  0  0
 18 21  2  0  0  0  0
 19 20  2  0  0  0  0
 21 22  1  0  0  0  0
 21 25  1  0  0  0  0
 22 23  1  0  0  0  0
 23 24  1  0  0  0  0
 23 26  1  0  0  0  0
 24 25  2  0  0  0  0
  2 27  1  0  0  0  0
  3 28  1  0  0  0  0
  4 29  1  0  0  0  0
  6 30  1  0  0  0  0
 10 31  1  0  0  0  0
 12 32  1  0  0  0  0
 12 33  1  0  0  0  0
 12 34  1  0  0  0  0
 14 35  1  0  0  0  0
 16 36  1  0  0  0  0
 17 37  1  0  0  0  0
 19 38  1  0  0  0  0
 20 39  1  0  0  0  0
 22 40  1  0  0  0  0
 22 41  1  0  0  0  0
 25 42  1  0  0  0  0
 26 43  1  0  0  0  0
 26 44  1  0  0  0  0
 26 45  1  0  0  0  0
M  END
> <Name>
19

> <IC50[uM]>
0.015

$$$$
19
  -OEChem-05192314333D
 Structure written by MMmdl.
 45 48  0     1  0  0  0  0  0999 V2000
   -6.3863   12.3686  -12.0106 C   0  0  0  0  0  0  0  0  0  0  0  0
   -6.5303   11.8179  -10.7351 C   0  0  0  0  0  0  0  0  0  0  0  0
   -7.7274   10.5747  -13.0322 C   0  0  0  0  0  0  0  0  0  0  0  0
   -6.9939   11.7717  -13.1290 C   0  0  0  0  0  0  0  0  0  0  0  0
   -7.8233   10.0108  -11.7572 C   0  0  0  0  0  0  0  0  0  0  0  0
   -7.2504   10.6246  -10.6026 C   0  0  0  0  0  0  0  0  0  0  0  0
   -7.6148    9.7488   -9.5126 C   0  0  0  0  0  0  0  0  0  0  0  0
   -8.2772    8.7301   -9.9866 N   0  0  0  0  0  0  0  0  0  0  0  0
   -8.4133    8.8585  -11.2996 N   0  0  0  0  0  0  0  0  0  0  0  0
   -7.3367    9.8906   -8.0265 C   0  0  0  0  0  0  0  0  0  0  0  0
   -4.3739   13.6178  -11.5022 N   0  0  0  0  0  0  0  0  0  0  0  0
   -3.4056   14.7196  -11.5963 C   0  0  0  0  0  0  0  0  0  0  0  0
   -5.5407   13.6198  -12.1903 C   0  0  0  0  0  0  0  0  0  0  0  0
   -5.8948   14.5296  -12.9394 O   0  0  0  0  0  0  0  0  0  0  0  0
   -5.9610   10.4852   -7.7361 C   0  0  0  0  0  0  0  0  0  0  0  0
   -4.8098    9.7648   -8.0558 C   0  0  0  0  0  0  0  0  0  0  0  0
   -3.5520   10.3132   -7.8064 C   0  0  0  0  0  0  0  0  0  0  0  0
   -3.4430   11.5871   -7.2363 C   0  0  0  0  0  0  0  0  0  0  0  0
   -4.5944   12.3027   -6.9144 C   0  0  0  0  0  0  0  0  0  0  0  0
   -5.8504   11.7539   -7.1603 C   0  0  0  0  0  0  0  0  0  0  0  0
   -2.0991   12.1752   -6.9687 C   0  0  0  0  0  0  0  0  0  0  0  0
   -1.7663   13.4191   -6.4362 C   0  0  0  0  0  0  0  0  0  0  0  0
   -0.4291   13.4776   -6.3870 N   0  0  3  0  0  0  0  0  0  0  0  0
    0.1723   12.4029   -6.8190 N   0  0  0  0  0  0  0  0  0  0  0  0
   -0.8029   11.5945   -7.2007 C   0  0  0  0  0  0  0  0  0  0  0  0
    0.3904   14.5868   -5.9117 C   0  0  0  0  0  0  0  0  0  0  0  0
   -6.0966   12.3009   -9.8720 H   0  0  0  0  0  0  0  0  0  0  0  0
   -8.7487   10.7774  -13.3871 H   0  0  0  0  0  0  0  0  0  0  0  0
   -7.2503    9.8346  -13.6914 H   0  0  0  0  0  0  0  0  0  0  0  0
   -6.8945   12.2471  -14.0936 H   0  0  0  0  0  0  0  0  0  0  0  0
   -8.0374    9.6016   -7.2571 H   0  0  0  0  0  0  0  0  0  0  0  0
   -2.5387   14.5023  -10.9550 H   0  0  0  0  0  0  0  0  0  0  0  0
   -3.0724   14.8267  -12.6391 H   0  0  0  0  0  0  0  0  0  0  0  0
   -3.8811   15.6547  -11.2654 H   0  0  0  0  0  0  0  0  0  0  0  0
   -5.2461   15.2234  -12.9243 H   0  0  0  0  0  0  0  0  0  0  0  0
   -4.8927    8.7823   -8.4965 H   0  0  0  0  0  0  0  0  0  0  0  0
   -2.6613    9.7546   -8.0533 H   0  0  0  0  0  0  0  0  0  0  0  0
   -4.5126   13.2851   -6.4732 H   0  0  0  0  0  0  0  0  0  0  0  0
   -6.7407   12.3097   -6.9056 H   0  0  0  0  0  0  0  0  0  0  0  0
   -2.1564   14.2220   -7.0789 H   0  0  0  0  0  0  0  0  0  0  0  0
   -2.1866   13.5221   -5.4249 H   0  0  0  0  0  0  0  0  0  0  0  0
   -0.6455   10.6177   -7.6337 H   0  0  0  0  0  0  0  0  0  0  0  0
    1.4543   14.3214   -5.9997 H   0  0  0  0  0  0  0  0  0  0  0  0
    0.1843   15.4810   -6.5183 H   0  0  0  0  0  0  0  0  0  0  0  0
    0.1504   14.7949   -4.8586 H   0  0  0  0  0  0  0  0  0  0  0  0
  1  2  1  0  0  0  0
  1  4  2  0  0  0  0
  1 13  1  0  0  0  0
  2  6  2  0  0  0  0
  3  4  1  0  0  0  0
  3  5  1  0  0  0  0
  5  6  1  0  0  0  0
  5  9  2  0  0  0  0
  6  7  1  0  0  0  0
  7  8  2  0  0  0  0
  7 10  1  0  0  0  0
  8  9  1  0  0  0  0
 10 15  2  0  0  0  0
 11 12  1  0  0  0  0
 11 13  2  0  0  0  0
 13 14  1  0  0  0  0
 15 16  1  0  0  0  0
 15 20  1  0  0  0  0
 16 17  2  0  0  0  0
 17 18  1  0  0  0  0
 18 19  1  0  0  0  0
 18 21  2  0  0  0  0
 19 20  2  0  0  0  0
 21 22  1  0  0  0  0
 21 25  1  0  0  0  0
 22 23  1  0  0  0  0
 23 24  1  0  0  0  0
 23 26  1  0  0  0  0
 24 25  2  0  0  0  0
  2 27  1  0  0  0  0
  3 28  1  0  0  0  0
  3 29  1  0  0  0  0
  4 30  1  0  0  0  0
 10 31  1  0  0  0  0
 12 32  1  0  0  0  0
 12 33  1  0  0  0  0
 12 34  1  0  0  0  0
 14 35  1  0  0  0  0
 16 36  1  0  0  0  0
 17 37  1  0  0  0  0
 19 38  1  0  0  0  0
 20 39  1  0  0  0  0
 22 40  1  0  0  0  0
 22 41  1  0  0  0  0
 25 42  1  0  0  0  0
 26 43  1  0  0  0  0
 26 44  1  0  0  0  0
 26 45  1  0  0  0  0
M  END
> <Name>
19

> <IC50[uM]>
0.015

$$$$
19
  -OEChem-05192314333D
 Structure written by MMmdl.
 45 48  0     1  0  0  0  0  0999 V2000
   -6.3863   12.3686  -12.0106 C   0  0  0  0  0  0  0  0  0  0  0  0
   -6.5303   11.8179  -10.7351 C   0  0  0  0  0  0  0  0  0  0  0  0
   -7.7274   10.5747  -13.0322 C   0  0  0  0  0  0  0  0  0  0  0  0
   -6.9939   11.7717  -13.1290 C   0  0  0  0  0  0  0  0  0  0  0  0
   -7.8233   10.0108  -11.7572 C   0  0  3  0  0  0  0  0  0  0  0  0
   -7.2504   10.6246  -10.6026 C   0  0  0  0  0  0  0  0  0  0  0  0
   -7.6148    9.7488   -9.5126 C   0  0  0  0  0  0  0  0  0  0  0  0
   -8.2772    8.7301   -9.9866 N   0  0  0  0  0  0  0  0  0  0  0  0
   -8.4133    8.8585  -11.2996 N   0  0  0  0  0  0  0  0  0  0  0  0
   -7.3367    9.8906   -8.0265 C   0  0  0  0  0  0  0  0  0  0  0  0
   -4.3739   13.6178  -11.5022 N   0  0  0  0  0  0  0  0  0  0  0  0
   -3.4056   14.7196  -11.5963 C   0  0  0  0  0  0  0  0  0  0  0  0
   -5.5407   13.6198  -12.1903 C   0  0  0  0  0  0  0  0  0  0  0  0
   -5.8948   14.5296  -12.9394 O   0  0  0  0  0  0  0  0  0  0  0  0
   -5.9610   10.4852   -7.7361 C   0  0  0  0  0  0  0  0  0  0  0  0
   -4.8098    9.7648   -8.0558 C   0  0  0  0  0  0  0  0  0  0  0  0
   -3.5520   10.3132   -7.8064 C   0  0  0  0  0  0  0  0  0  0  0  0
   -3.4430   11.5871   -7.2363 C   0  0  0  0  0  0  0  0  0  0  0  0
   -4.5944   12.3027   -6.9144 C   0  0  0  0  0  0  0  0  0  0  0  0
   -5.8504   11.7539   -7.1603 C   0  0  0  0  0  0  0  0  0  0  0  0
   -2.0991   12.1752   -6.9687 C   0  0  0  0  0  0  0  0  0  0  0  0
   -1.7663   13.4191   -6.4362 C   0  0  0  0  0  0  0  0  0  0  0  0
   -0.4291   13.4776   -6.3870 N   0  0  3  0  0  0  0  0  0  0  0  0
    0.1723   12.4029   -6.8190 N   0  0  0  0  0  0  0  0  0  0  0  0
   -0.8029   11.5945   -7.2007 C   0  0  0  0  0  0  0  0  0  0  0  0
    0.3904   14.5868   -5.9117 C   0  0  0  0  0  0  0  0  0  0  0  0
   -6.0966   12.3009   -9.8720 H   0  0  0  0  0  0  0  0  0  0  0  0
   -8.1900   10.1177  -13.8945 H   0  0  0  0  0  0  0  0  0  0  0  0
   -6.8945   12.2471  -14.0936 H   0  0  0  0  0  0  0  0  0  0  0  0
   -8.7607   10.5598  -11.5844 H   0  0  0  0  0  0  0  0  0  0  0  0
   -8.0374    9.6016   -7.2571 H   0  0  0  0  0  0  0  0  0  0  0  0
   -4.1641   12.8399  -10.9098 H   0  0  0  0  0  0  0  0  0  0  0  0
   -2.5387   14.5023  -10.9550 H   0  0  0  0  0  0  0  0  0  0  0  0
   -3.0724   14.8267  -12.6391 H   0  0  0  0  0  0  0  0  0  0  0  0
   -3.8811   15.6547  -11.2654 H   0  0  0  0  0  0  0  0  0  0  0  0
   -4.8927    8.7823   -8.4965 H   0  0  0  0  0  0  0  0  0  0  0  0
   -2.6613    9.7546   -8.0533 H   0  0  0  0  0  0  0  0  0  0  0  0
   -4.5126   13.2851   -6.4732 H   0  0  0  0  0  0  0  0  0  0  0  0
   -6.7407   12.3097   -6.9056 H   0  0  0  0  0  0  0  0  0  0  0  0
   -2.1564   14.2220   -7.0789 H   0  0  0  0  0  0  0  0  0  0  0  0
   -2.1866   13.5221   -5.4249 H   0  0  0  0  0  0  0  0  0  0  0  0
   -0.6455   10.6177   -7.6337 H   0  0  0  0  0  0  0  0  0  0  0  0
    1.4543   14.3214   -5.9997 H   0  0  0  0  0  0  0  0  0  0  0  0
    0.1843   15.4810   -6.5183 H   0  0  0  0  0  0  0  0  0  0  0  0
    0.1504   14.7949   -4.8586 H   0  0  0  0  0  0  0  0  0  0  0  0
  1  2  2  0  0  0  0
  1  4  1  0  0  0  0
  1 13  1  0  0  0  0
  2  6  1  0  0  0  0
  3  4  2  0  0  0  0
  3  5  1  0  0  0  0
  5  6  1  0  0  0  0
  5  9  1  0  0  0  0
  6  7  2  0  0  0  0
  7  8  1  0  0  0  0
  7 10  1  0  0  0  0
  8  9  2  0  0  0  0
 10 15  2  0  0  0  0
 11 12  1  0  0  0  0
 11 13  1  0  0  0  0
 13 14  2  0  0  0  0
 15 16  1  0  0  0  0
 15 20  1  0  0  0  0
 16 17  2  0  0  0  0
 17 18  1  0  0  0  0
 18 19  1  0  0  0  0
 18 21  2  0  0  0  0
 19 20  2  0  0  0  0
 21 22  1  0  0  0  0
 21 25  1  0  0  0  0
 22 23  1  0  0  0  0
 23 24  1  0  0  0  0
 23 26  1  0  0  0  0
 24 25  2  0  0  0  0
  2 27  1  0  0  0  0
  3 28  1  0  0  0  0
  4 29  1  0  0  0  0
  5 30  1  0  0  0  0
 10 31  1  0  0  0  0
 11 32  1  0  0  0  0
 12 33  1  0  0  0  0
 12 34  1  0  0  0  0
 12 35  1  0  0  0  0
 16 36  1  0  0  0  0
 17 37  1  0  0  0  0
 19 38  1  0  0  0  0
 20 39  1  0  0  0  0
 22 40  1  0  0  0  0
 22 41  1  0  0  0  0
 25 42  1  0  0  0  0
 26 43  1  0  0  0  0
 26 44  1  0  0  0  0
 26 45  1  0  0  0  0
M  END
> <Name>
19

> <IC50[uM]>
0.015

$$$$
19
  -OEChem-05192314333D
 Structure written by MMmdl.
 45 48  0     1  0  0  0  0  0999 V2000
   -6.3863   12.3686  -12.0106 C   0  0  0  0  0  0  0  0  0  0  0  0
   -6.5303   11.8179  -10.7351 C   0  0  0  0  0  0  0  0  0  0  0  0
   -7.7274   10.5747  -13.0322 C   0  0  0  0  0  0  0  0  0  0  0  0
   -6.9939   11.7717  -13.1290 C   0  0  0  0  0  0  0  0  0  0  0  0
   -7.8233   10.0108  -11.7572 C   0  0  0  0  0  0  0  0  0  0  0  0
   -7.2504   10.6246  -10.6026 C   0  0  0  0  0  0  0  0  0  0  0  0
   -7.6148    9.7488   -9.5126 C   0  0  0  0  0  0  0  0  0  0  0  0
   -8.2772    8.7301   -9.9866 N   0  0  0  0  0  0  0  0  0  0  0  0
   -8.4133    8.8585  -11.2996 N   0  0  0  0  0  0  0  0  0  0  0  0
   -7.3367    9.8906   -8.0265 C   0  0  0  0  0  0  0  0  0  0  0  0
   -4.3739   13.6178  -11.5022 N   0  0  0  0  0  0  0  0  0  0  0  0
   -3.4056   14.7196  -11.5963 C   0  0  0  0  0  0  0  0  0  0  0  0
   -5.5407   13.6198  -12.1903 C   0  0  0  0  0  0  0  0  0  0  0  0
   -5.8948   14.5296  -12.9394 O   0  0  0  0  0  0  0  0  0  0  0  0
   -5.9610   10.4852   -7.7361 C   0  0  0  0  0  0  0  0  0  0  0  0
   -4.8098    9.7648   -8.0558 C   0  0  0  0  0  0  0  0  0  0  0  0
   -3.5520   10.3132   -7.8064 C   0  0  0  0  0  0  0  0  0  0  0  0
   -3.4430   11.5871   -7.2363 C   0  0  0  0  0  0  0  0  0  0  0  0
   -4.5944   12.3027   -6.9144 C   0  0  0  0  0  0  0  0  0  0  0  0
   -5.8504   11.7539   -7.1603 C   0  0  0  0  0  0  0  0  0  0  0  0
   -2.0991   12.1752   -6.9687 C   0  0  0  0  0  0  0  0  0  0  0  0
   -1.7663   13.4191   -6.4362 C   0  0  0  0  0  0  0  0  0  0  0  0
   -0.4291   13.4776   -6.3870 N   0  0  3  0  0  0  0  0  0  0  0  0
    0.1723   12.4029   -6.8190 N   0  0  0  0  0  0  0  0  0  0  0  0
   -0.8029   11.5945   -7.2007 C   0  0  0  0  0  0  0  0  0  0  0  0
    0.3904   14.5868   -5.9117 C   0  0  0  0  0  0  0  0  0  0  0  0
   -6.0966   12.3009   -9.8720 H   0  0  0  0  0  0  0  0  0  0  0  0
   -8.1900   10.1177  -13.8945 H   0  0  0  0  0  0  0  0  0  0  0  0
   -7.6841   12.5226  -13.5411 H   0  0  0  0  0  0  0  0  0  0  0  0
   -6.1868   11.5800  -13.8514 H   0  0  0  0  0  0  0  0  0  0  0  0
   -8.0374    9.6016   -7.2571 H   0  0  0  0  0  0  0  0  0  0  0  0
   -4.1641   12.8399  -10.9098 H   0  0  0  0  0  0  0  0  0  0  0  0
   -2.5387   14.5023  -10.9550 H   0  0  0  0  0  0  0  0  0  0  0  0
   -3.0724   14.8267  -12.6391 H   0  0  0  0  0  0  0  0  0  0  0  0
   -3.8811   15.6547  -11.2654 H   0  0  0  0  0  0  0  0  0  0  0  0
   -4.8927    8.7823   -8.4965 H   0  0  0  0  0  0  0  0  0  0  0  0
   -2.6613    9.7546   -8.0533 H   0  0  0  0  0  0  0  0  0  0  0  0
   -4.5126   13.2851   -6.4732 H   0  0  0  0  0  0  0  0  0  0  0  0
   -6.7407   12.3097   -6.9056 H   0  0  0  0  0  0  0  0  0  0  0  0
   -2.1564   14.2220   -7.0789 H   0  0  0  0  0  0  0  0  0  0  0  0
   -2.1866   13.5221   -5.4249 H   0  0  0  0  0  0  0  0  0  0  0  0
   -0.6455   10.6177   -7.6337 H   0  0  0  0  0  0  0  0  0  0  0  0
    1.4543   14.3214   -5.9997 H   0  0  0  0  0  0  0  0  0  0  0  0
    0.1843   15.4810   -6.5183 H   0  0  0  0  0  0  0  0  0  0  0  0
    0.1504   14.7949   -4.8586 H   0  0  0  0  0  0  0  0  0  0  0  0
  1  2  2  0  0  0  0
  1  4  1  0  0  0  0
  1 13  1  0  0  0  0
  2  6  1  0  0  0  0
  3  4  1  0  0  0  0
  3  5  2  0  0  0  0
  5  6  1  0  0  0  0
  5  9  1  0  0  0  0
  6  7  2  0  0  0  0
  7  8  1  0  0  0  0
  7 10  1  0  0  0  0
  8  9  2  0  0  0  0
 10 15  2  0  0  0  0
 11 12  1  0  0  0  0
 11 13  1  0  0  0  0
 13 14  2  0  0  0  0
 15 16  1  0  0  0  0
 15 20  1  0  0  0  0
 16 17  2  0  0  0  0
 17 18  1  0  0  0  0
 18 19  1  0  0  0  0
 18 21  2  0  0  0  0
 19 20  2  0  0  0  0
 21 22  1  0  0  0  0
 21 25  1  0  0  0  0
 22 23  1  0  0  0  0
 23 24  1  0  0  0  0
 23 26  1  0  0  0  0
 24 25  2  0  0  0  0
  2 27  1  0  0  0  0
  3 28  1  0  0  0  0
  4 29  1  0  0  0  0
  4 30  1  0  0  0  0
 10 31  1  0  0  0  0
 11 32  1  0  0  0  0
 12 33  1  0  0  0  0
 12 34  1  0  0  0  0
 12 35  1  0  0  0  0
 16 36  1  0  0  0  0
 17 37  1  0  0  0  0
 19 38  1  0  0  0  0
 20 39  1  0  0  0  0
 22 40  1  0  0  0  0
 22 41  1  0  0  0  0
 25 42  1  0  0  0  0
 26 43  1  0  0  0  0
 26 44  1  0  0  0  0
 26 45  1  0  0  0  0
M  END
> <Name>
19

> <IC50[uM]>
0.015

$$$$
19
  -OEChem-05192314333D
 Structure written by MMmdl.
 45 48  0     1  0  0  0  0  0999 V2000
   -6.3863   12.3686  -12.0106 C   0  0  0  0  0  0  0  0  0  0  0  0
   -6.5303   11.8179  -10.7351 C   0  0  0  0  0  0  0  0  0  0  0  0
   -7.7274   10.5747  -13.0322 C   0  0  0  0  0  0  0  0  0  0  0  0
   -6.9939   11.7717  -13.1290 C   0  0  0  0  0  0  0  0  0  0  0  0
   -7.8233   10.0108  -11.7572 C   0  0  0  0  0  0  0  0  0  0  0  0
   -7.2504   10.6246  -10.6026 C   0  0  0  0  0  0  0  0  0  0  0  0
   -7.6148    9.7488   -9.5126 C   0  0  0  0  0  0  0  0  0  0  0  0
   -8.2772    8.7301   -9.9866 N   0  0  0  0  0  0  0  0  0  0  0  0
   -8.4133    8.8585  -11.2996 N   0  0  0  0  0  0  0  0  0  0  0  0
   -7.3367    9.8906   -8.0265 C   0  0  0  0  0  0  0  0  0  0  0  0
   -4.3739   13.6178  -11.5022 N   0  0  0  0  0  0  0  0  0  0  0  0
   -3.4056   14.7196  -11.5963 C   0  0  0  0  0  0  0  0  0  0  0  0
   -5.5407   13.6198  -12.1903 C   0  0  0  0  0  0  0  0  0  0  0  0
   -5.8948   14.5296  -12.9394 O   0  0  0  0  0  0  0  0  0  0  0  0
   -5.9610   10.4852   -7.7361 C   0  0  0  0  0  0  0  0  0  0  0  0
   -4.8098    9.7648   -8.0558 C   0  0  0  0  0  0  0  0  0  0  0  0
   -3.5520   10.3132   -7.8064 C   0  0  0  0  0  0  0  0  0  0  0  0
   -3.4430   11.5871   -7.2363 C   0  0  0  0  0  0  0  0  0  0  0  0
   -4.5944   12.3027   -6.9144 C   0  0  0  0  0  0  0  0  0  0  0  0
   -5.8504   11.7539   -7.1603 C   0  0  0  0  0  0  0  0  0  0  0  0
   -2.0991   12.1752   -6.9687 C   0  0  0  0  0  0  0  0  0  0  0  0
   -1.7663   13.4191   -6.4362 C   0  0  0  0  0  0  0  0  0  0  0  0
   -0.4291   13.4776   -6.3870 N   0  0  3  0  0  0  0  0  0  0  0  0
    0.1723   12.4029   -6.8190 N   0  0  0  0  0  0  0  0  0  0  0  0
   -0.8029   11.5945   -7.2007 C   0  0  0  0  0  0  0  0  0  0  0  0
    0.3904   14.5868   -5.9117 C   0  0  0  0  0  0  0  0  0  0  0  0
   -5.5187   11.6324  -10.3449 H   0  0  0  0  0  0  0  0  0  0  0  0
   -7.0319   12.5715  -10.1102 H   0  0  0  0  0  0  0  0  0  0  0  0
   -8.1900   10.1177  -13.8945 H   0  0  0  0  0  0  0  0  0  0  0  0
   -6.8945   12.2471  -14.0936 H   0  0  0  0  0  0  0  0  0  0  0  0
   -8.0374    9.6016   -7.2571 H   0  0  0  0  0  0  0  0  0  0  0  0
   -4.1641   12.8399  -10.9098 H   0  0  0  0  0  0  0  0  0  0  0  0
   -2.5387   14.5023  -10.9550 H   0  0  0  0  0  0  0  0  0  0  0  0
   -3.0724   14.8267  -12.6391 H   0  0  0  0  0  0  0  0  0  0  0  0
   -3.8811   15.6547  -11.2654 H   0  0  0  0  0  0  0  0  0  0  0  0
   -4.8927    8.7823   -8.4965 H   0  0  0  0  0  0  0  0  0  0  0  0
   -2.6613    9.7546   -8.0533 H   0  0  0  0  0  0  0  0  0  0  0  0
   -4.5126   13.2851   -6.4732 H   0  0  0  0  0  0  0  0  0  0  0  0
   -6.7407   12.3097   -6.9056 H   0  0  0  0  0  0  0  0  0  0  0  0
   -2.1564   14.2220   -7.0789 H   0  0  0  0  0  0  0  0  0  0  0  0
   -2.1866   13.5221   -5.4249 H   0  0  0  0  0  0  0  0  0  0  0  0
   -0.6455   10.6177   -7.6337 H   0  0  0  0  0  0  0  0  0  0  0  0
    1.4543   14.3214   -5.9997 H   0  0  0  0  0  0  0  0  0  0  0  0
    0.1843   15.4810   -6.5183 H   0  0  0  0  0  0  0  0  0  0  0  0
    0.1504   14.7949   -4.8586 H   0  0  0  0  0  0  0  0  0  0  0  0
  1  2  1  0  0  0  0
  1  4  2  0  0  0  0
  1 13  1  0  0  0  0
  2  6  1  0  0  0  0
  3  4  1  0  0  0  0
  3  5  2  0  0  0  0
  5  6  1  0  0  0  0
  5  9  1  0  0  0  0
  6  7  2  0  0  0  0
  7  8  1  0  0  0  0
  7 10  1  0  0  0  0
  8  9  2  0  0  0  0
 10 15  2  0  0  0  0
 11 12  1  0  0  0  0
 11 13  1  0  0  0  0
 13 14  2  0  0  0  0
 15 16  1  0  0  0  0
 15 20  1  0  0  0  0
 16 17  2  0  0  0  0
 17 18  1  0  0  0  0
 18 19  1  0  0  0  0
 18 21  2  0  0  0  0
 19 20  2  0  0  0  0
 21 22  1  0  0  0  0
 21 25  1  0  0  0  0
 22 23  1  0  0  0  0
 23 24  1  0  0  0  0
 23 26  1  0  0  0  0
 24 25  2  0  0  0  0
  2 27  1  0  0  0  0
  2 28  1  0  0  0  0
  3 29  1  0  0  0  0
  4 30  1  0  0  0  0
 10 31  1  0  0  0  0
 11 32  1  0  0  0  0
 12 33  1  0  0  0  0
 12 34  1  0  0  0  0
 12 35  1  0  0  0  0
 16 36  1  0  0  0  0
 17 37  1  0  0  0  0
 19 38  1  0  0  0  0
 20 39  1  0  0  0  0
 22 40  1  0  0  0  0
 22 41  1  0  0  0  0
 25 42  1  0  0  0  0
 26 43  1  0  0  0  0
 26 44  1  0  0  0  0
 26 45  1  0  0  0  0
M  END
> <Name>
19

> <IC50[uM]>
0.015

$$$$
19
  -OEChem-05192314333D
 Structure written by MMmdl.
 45 48  0     1  0  0  0  0  0999 V2000
   -6.3863   12.3686  -12.0106 C   0  0  0  0  0  0  0  0  0  0  0  0
   -6.5303   11.8179  -10.7351 C   0  0  0  0  0  0  0  0  0  0  0  0
   -7.7274   10.5747  -13.0322 C   0  0  0  0  0  0  0  0  0  0  0  0
   -6.9939   11.7717  -13.1290 C   0  0  0  0  0  0  0  0  0  0  0  0
   -7.8233   10.0108  -11.7572 C   0  0  3  0  0  0  0  0  0  0  0  0
   -7.2504   10.6246  -10.6026 C   0  0  0  0  0  0  0  0  0  0  0  0
   -7.6148    9.7488   -9.5126 C   0  0  0  0  0  0  0  0  0  0  0  0
   -8.2772    8.7301   -9.9866 N   0  0  0  0  0  0  0  0  0  0  0  0
   -8.4133    8.8585  -11.2996 N   0  0  0  0  0  0  0  0  0  0  0  0
   -7.3367    9.8906   -8.0265 C   0  0  0  0  0  0  0  0  0  0  0  0
   -4.3739   13.6178  -11.5022 N   0  0  0  0  0  0  0  0  0  0  0  0
   -3.4056   14.7196  -11.5963 C   0  0  0  0  0  0  0  0  0  0  0  0
   -5.5407   13.6198  -12.1903 C   0  0  0  0  0  0  0  0  0  0  0  0
   -5.8948   14.5296  -12.9394 O   0  0  0  0  0  0  0  0  0  0  0  0
   -5.9610   10.4852   -7.7361 C   0  0  0  0  0  0  0  0  0  0  0  0
   -4.8098    9.7648   -8.0558 C   0  0  0  0  0  0  0  0  0  0  0  0
   -3.5520   10.3132   -7.8064 C   0  0  0  0  0  0  0  0  0  0  0  0
   -3.4430   11.5871   -7.2363 C   0  0  0  0  0  0  0  0  0  0  0  0
   -4.5944   12.3027   -6.9144 C   0  0  0  0  0  0  0  0  0  0  0  0
   -5.8504   11.7539   -7.1603 C   0  0  0  0  0  0  0  0  0  0  0  0
   -2.0991   12.1752   -6.9687 C   0  0  0  0  0  0  0  0  0  0  0  0
   -1.7663   13.4191   -6.4362 C   0  0  0  0  0  0  0  0  0  0  0  0
   -0.4291   13.4776   -6.3870 N   0  0  3  0  0  0  0  0  0  0  0  0
    0.1723   12.4029   -6.8190 N   0  0  0  0  0  0  0  0  0  0  0  0
   -0.8029   11.5945   -7.2007 C   0  0  0  0  0  0  0  0  0  0  0  0
    0.3904   14.5868   -5.9117 C   0  0  0  0  0  0  0  0  0  0  0  0
   -6.0966   12.3009   -9.8720 H   0  0  0  0  0  0  0  0  0  0  0  0
   -8.1900   10.1177  -13.8945 H   0  0  0  0  0  0  0  0  0  0  0  0
   -6.8945   12.2471  -14.0936 H   0  0  0  0  0  0  0  0  0  0  0  0
   -8.7607   10.5598  -11.5844 H   0  0  0  0  0  0  0  0  0  0  0  0
   -8.0374    9.6016   -7.2571 H   0  0  0  0  0  0  0  0  0  0  0  0
   -2.5387   14.5023  -10.9550 H   0  0  0  0  0  0  0  0  0  0  0  0
   -3.0724   14.8267  -12.6391 H   0  0  0  0  0  0  0  0  0  0  0  0
   -3.8811   15.6547  -11.2654 H   0  0  0  0  0  0  0  0  0  0  0  0
   -5.2461   15.2234  -12.9243 H   0  0  0  0  0  0  0  0  0  0  0  0
   -4.8927    8.7823   -8.4965 H   0  0  0  0  0  0  0  0  0  0  0  0
   -2.6613    9.7546   -8.0533 H   0  0  0  0  0  0  0  0  0  0  0  0
   -4.5126   13.2851   -6.4732 H   0  0  0  0  0  0  0  0  0  0  0  0
   -6.7407   12.3097   -6.9056 H   0  0  0  0  0  0  0  0  0  0  0  0
   -2.1564   14.2220   -7.0789 H   0  0  0  0  0  0  0  0  0  0  0  0
   -2.1866   13.5221   -5.4249 H   0  0  0  0  0  0  0  0  0  0  0  0
   -0.6455   10.6177   -7.6337 H   0  0  0  0  0  0  0  0  0  0  0  0
    1.4543   14.3214   -5.9997 H   0  0  0  0  0  0  0  0  0  0  0  0
    0.1843   15.4810   -6.5183 H   0  0  0  0  0  0  0  0  0  0  0  0
    0.1504   14.7949   -4.8586 H   0  0  0  0  0  0  0  0  0  0  0  0
  1  2  2  0  0  0  0
  1  4  1  0  0  0  0
  1 13  1  0  0  0  0
  2  6  1  0  0  0  0
  3  4  2  0  0  0  0
  3  5  1  0  0  0  0
  5  6  1  0  0  0  0
  5  9  1  0  0  0  0
  6  7  2  0  0  0  0
  7  8  1  0  0  0  0
  7 10  1  0  0  0  0
  8  9  2  0  0  0  0
 10 15  2  0  0  0  0
 11 12  1  0  0  0  0
 11 13  2  0  0  0  0
 13 14  1  0  0  0  0
 15 16  1  0  0  0  0
 15 20  1  0  0  0  0
 16 17  2  0  0  0  0
 17 18  1  0  0  0  0
 18 19  1  0  0  0  0
 18 21  2  0  0  0  0
 19 20  2  0  0  0  0
 21 22  1  0  0  0  0
 21 25  1  0  0  0  0
 22 23  1  0  0  0  0
 23 24  1  0  0  0  0
 23 26  1  0  0  0  0
 24 25  2  0  0  0  0
  2 27  1  0  0  0  0
  3 28  1  0  0  0  0
  4 29  1  0  0  0  0
  5 30  1  0  0  0  0
 10 31  1  0  0  0  0
 12 32  1  0  0  0  0
 12 33  1  0  0  0  0
 12 34  1  0  0  0  0
 14 35  1  0  0  0  0
 16 36  1  0  0  0  0
 17 37  1  0  0  0  0
 19 38  1  0  0  0  0
 20 39  1  0  0  0  0
 22 40  1  0  0  0  0
 22 41  1  0  0  0  0
 25 42  1  0  0  0  0
 26 43  1  0  0  0  0
 26 44  1  0  0  0  0
 26 45  1  0  0  0  0
M  END
> <Name>
19

> <IC50[uM]>
0.015

$$$$
19
  -OEChem-05192314333D
 Structure written by MMmdl.
 45 48  0     1  0  0  0  0  0999 V2000
   -6.3863   12.3686  -12.0106 C   0  0  0  0  0  0  0  0  0  0  0  0
   -6.5303   11.8179  -10.7351 C   0  0  0  0  0  0  0  0  0  0  0  0
   -7.7274   10.5747  -13.0322 C   0  0  0  0  0  0  0  0  0  0  0  0
   -6.9939   11.7717  -13.1290 C   0  0  0  0  0  0  0  0  0  0  0  0
   -7.8233   10.0108  -11.7572 C   0  0  0  0  0  0  0  0  0  0  0  0
   -7.2504   10.6246  -10.6026 C   0  0  0  0  0  0  0  0  0  0  0  0
   -7.6148    9.7488   -9.5126 C   0  0  0  0  0  0  0  0  0  0  0  0
   -8.2772    8.7301   -9.9866 N   0  0  0  0  0  0  0  0  0  0  0  0
   -8.4133    8.8585  -11.2996 N   0  0  0  0  0  0  0  0  0  0  0  0
   -7.3367    9.8906   -8.0265 C   0  0  0  0  0  0  0  0  0  0  0  0
   -4.3739   13.6178  -11.5022 N   0  0  0  0  0  0  0  0  0  0  0  0
   -3.4056   14.7196  -11.5963 C   0  0  0  0  0  0  0  0  0  0  0  0
   -5.5407   13.6198  -12.1903 C   0  0  0  0  0  0  0  0  0  0  0  0
   -5.8948   14.5296  -12.9394 O   0  0  0  0  0  0  0  0  0  0  0  0
   -5.9610   10.4852   -7.7361 C   0  0  0  0  0  0  0  0  0  0  0  0
   -4.8098    9.7648   -8.0558 C   0  0  0  0  0  0  0  0  0  0  0  0
   -3.5520   10.3132   -7.8064 C   0  0  0  0  0  0  0  0  0  0  0  0
   -3.4430   11.5871   -7.2363 C   0  0  0  0  0  0  0  0  0  0  0  0
   -4.5944   12.3027   -6.9144 C   0  0  0  0  0  0  0  0  0  0  0  0
   -5.8504   11.7539   -7.1603 C   0  0  0  0  0  0  0  0  0  0  0  0
   -2.0991   12.1752   -6.9687 C   0  0  0  0  0  0  0  0  0  0  0  0
   -1.7663   13.4191   -6.4362 C   0  0  0  0  0  0  0  0  0  0  0  0
   -0.4291   13.4776   -6.3870 N   0  0  3  0  0  0  0  0  0  0  0  0
    0.1723   12.4029   -6.8190 N   0  0  0  0  0  0  0  0  0  0  0  0
   -0.8029   11.5945   -7.2007 C   0  0  0  0  0  0  0  0  0  0  0  0
    0.3904   14.5868   -5.9117 C   0  0  0  0  0  0  0  0  0  0  0  0
   -6.0966   12.3009   -9.8720 H   0  0  0  0  0  0  0  0  0  0  0  0
   -8.1900   10.1177  -13.8945 H   0  0  0  0  0  0  0  0  0  0  0  0
   -7.6841   12.5226  -13.5411 H   0  0  0  0  0  0  0  0  0  0  0  0
   -6.1868   11.5800  -13.8514 H   0  0  0  0  0  0  0  0  0  0  0  0
   -8.0374    9.6016   -7.2571 H   0  0  0  0  0  0  0  0  0  0  0  0
   -2.5387   14.5023  -10.9550 H   0  0  0  0  0  0  0  0  0  0  0  0
   -3.0724   14.8267  -12.6391 H   0  0  0  0  0  0  0  0  0  0  0  0
   -3.8811   15.6547  -11.2654 H   0  0  0  0  0  0  0  0  0  0  0  0
   -5.2461   15.2234  -12.9243 H   0  0  0  0  0  0  0  0  0  0  0  0
   -4.8927    8.7823   -8.4965 H   0  0  0  0  0  0  0  0  0  0  0  0
   -2.6613    9.7546   -8.0533 H   0  0  0  0  0  0  0  0  0  0  0  0
   -4.5126   13.2851   -6.4732 H   0  0  0  0  0  0  0  0  0  0  0  0
   -6.7407   12.3097   -6.9056 H   0  0  0  0  0  0  0  0  0  0  0  0
   -2.1564   14.2220   -7.0789 H   0  0  0  0  0  0  0  0  0  0  0  0
   -2.1866   13.5221   -5.4249 H   0  0  0  0  0  0  0  0  0  0  0  0
   -0.6455   10.6177   -7.6337 H   0  0  0  0  0  0  0  0  0  0  0  0
    1.4543   14.3214   -5.9997 H   0  0  0  0  0  0  0  0  0  0  0  0
    0.1843   15.4810   -6.5183 H   0  0  0  0  0  0  0  0  0  0  0  0
    0.1504   14.7949   -4.8586 H   0  0  0  0  0  0  0  0  0  0  0  0
  1  2  2  0  0  0  0
  1  4  1  0  0  0  0
  1 13  1  0  0  0  0
  2  6  1  0  0  0  0
  3  4  1  0  0  0  0
  3  5  2  0  0  0  0
  5  6  1  0  0  0  0
  5  9  1  0  0  0  0
  6  7  2  0  0  0  0
  7  8  1  0  0  0  0
  7 10  1  0  0  0  0
  8  9  2  0  0  0  0
 10 15  2  0  0  0  0
 11 12  1  0  0  0  0
 11 13  2  0  0  0  0
 13 14  1  0  0  0  0
 15 16  1  0  0  0  0
 15 20  1  0  0  0  0
 16 17  2  0  0  0  0
 17 18  1  0  0  0  0
 18 19  1  0  0  0  0
 18 21  2  0  0  0  0
 19 20  2  0  0  0  0
 21 22  1  0  0  0  0
 21 25  1  0  0  0  0
 22 23  1  0  0  0  0
 23 24  1  0  0  0  0
 23 26  1  0  0  0  0
 24 25  2  0  0  0  0
  2 27  1  0  0  0  0
  3 28  1  0  0  0  0
  4 29  1  0  0  0  0
  4 30  1  0  0  0  0
 10 31  1  0  0  0  0
 12 32  1  0  0  0  0
 12 33  1  0  0  0  0
 12 34  1  0  0  0  0
 14 35  1  0  0  0  0
 16 36  1  0  0  0  0
 17 37  1  0  0  0  0
 19 38  1  0  0  0  0
 20 39  1  0  0  0  0
 22 40  1  0  0  0  0
 22 41  1  0  0  0  0
 25 42  1  0  0  0  0
 26 43  1  0  0  0  0
 26 44  1  0  0  0  0
 26 45  1  0  0  0  0
M  END
> <Name>
19

> <IC50[uM]>
0.015

$$$$
19
  -OEChem-05192314333D
 Structure written by MMmdl.
 45 48  0     1  0  0  0  0  0999 V2000
   -6.3863   12.3686  -12.0106 C   0  0  0  0  0  0  0  0  0  0  0  0
   -6.5303   11.8179  -10.7351 C   0  0  0  0  0  0  0  0  0  0  0  0
   -7.7274   10.5747  -13.0322 C   0  0  0  0  0  0  0  0  0  0  0  0
   -6.9939   11.7717  -13.1290 C   0  0  0  0  0  0  0  0  0  0  0  0
   -7.8233   10.0108  -11.7572 C   0  0  0  0  0  0  0  0  0  0  0  0
   -7.2504   10.6246  -10.6026 C   0  0  0  0  0  0  0  0  0  0  0  0
   -7.6148    9.7488   -9.5126 C   0  0  0  0  0  0  0  0  0  0  0  0
   -8.2772    8.7301   -9.9866 N   0  0  0  0  0  0  0  0  0  0  0  0
   -8.4133    8.8585  -11.2996 N   0  0  0  0  0  0  0  0  0  0  0  0
   -7.3367    9.8906   -8.0265 C   0  0  0  0  0  0  0  0  0  0  0  0
   -4.3739   13.6178  -11.5022 N   0  0  0  0  0  0  0  0  0  0  0  0
   -3.4056   14.7196  -11.5963 C   0  0  0  0  0  0  0  0  0  0  0  0
   -5.5407   13.6198  -12.1903 C   0  0  0  0  0  0  0  0  0  0  0  0
   -5.8948   14.5296  -12.9394 O   0  0  0  0  0  0  0  0  0  0  0  0
   -5.9610   10.4852   -7.7361 C   0  0  0  0  0  0  0  0  0  0  0  0
   -4.8098    9.7648   -8.0558 C   0  0  0  0  0  0  0  0  0  0  0  0
   -3.5520   10.3132   -7.8064 C   0  0  0  0  0  0  0  0  0  0  0  0
   -3.4430   11.5871   -7.2363 C   0  0  0  0  0  0  0  0  0  0  0  0
   -4.5944   12.3027   -6.9144 C   0  0  0  0  0  0  0  0  0  0  0  0
   -5.8504   11.7539   -7.1603 C   0  0  0  0  0  0  0  0  0  0  0  0
   -2.0991   12.1752   -6.9687 C   0  0  0  0  0  0  0  0  0  0  0  0
   -1.7663   13.4191   -6.4362 C   0  0  0  0  0  0  0  0  0  0  0  0
   -0.4291   13.4776   -6.3870 N   0  0  3  0  0  0  0  0  0  0  0  0
    0.1723   12.4029   -6.8190 N   0  0  0  0  0  0  0  0  0  0  0  0
   -0.8029   11.5945   -7.2007 C   0  0  0  0  0  0  0  0  0  0  0  0
    0.3904   14.5868   -5.9117 C   0  0  0  0  0  0  0  0  0  0  0  0
   -5.5187   11.6324  -10.3449 H   0  0  0  0  0  0  0  0  0  0  0  0
   -7.0319   12.5715  -10.1102 H   0  0  0  0  0  0  0  0  0  0  0  0
   -8.1900   10.1177  -13.8945 H   0  0  0  0  0  0  0  0  0  0  0  0
   -6.8945   12.2471  -14.0936 H   0  0  0  0  0  0  0  0  0  0  0  0
   -8.0374    9.6016   -7.2571 H   0  0  0  0  0  0  0  0  0  0  0  0
   -2.5387   14.5023  -10.9550 H   0  0  0  0  0  0  0  0  0  0  0  0
   -3.0724   14.8267  -12.6391 H   0  0  0  0  0  0  0  0  0  0  0  0
   -3.8811   15.6547  -11.2654 H   0  0  0  0  0  0  0  0  0  0  0  0
   -5.2461   15.2234  -12.9243 H   0  0  0  0  0  0  0  0  0  0  0  0
   -4.8927    8.7823   -8.4965 H   0  0  0  0  0  0  0  0  0  0  0  0
   -2.6613    9.7546   -8.0533 H   0  0  0  0  0  0  0  0  0  0  0  0
   -4.5126   13.2851   -6.4732 H   0  0  0  0  0  0  0  0  0  0  0  0
   -6.7407   12.3097   -6.9056 H   0  0  0  0  0  0  0  0  0  0  0  0
   -2.1564   14.2220   -7.0789 H   0  0  0  0  0  0  0  0  0  0  0  0
   -2.1866   13.5221   -5.4249 H   0  0  0  0  0  0  0  0  0  0  0  0
   -0.6455   10.6177   -7.6337 H   0  0  0  0  0  0  0  0  0  0  0  0
    1.4543   14.3214   -5.9997 H   0  0  0  0  0  0  0  0  0  0  0  0
    0.1843   15.4810   -6.5183 H   0  0  0  0  0  0  0  0  0  0  0  0
    0.1504   14.7949   -4.8586 H   0  0  0  0  0  0  0  0  0  0  0  0
  1  2  1  0  0  0  0
  1  4  2  0  0  0  0
  1 13  1  0  0  0  0
  2  6  1  0  0  0  0
  3  4  1  0  0  0  0
  3  5  2  0  0  0  0
  5  6  1  0  0  0  0
  5  9  1  0  0  0  0
  6  7  2  0  0  0  0
  7  8  1  0  0  0  0
  7 10  1  0  0  0  0
  8  9  2  0  0  0  0
 10 15  2  0  0  0  0
 11 12  1  0  0  0  0
 11 13  2  0  0  0  0
 13 14  1  0  0  0  0
 15 16  1  0  0  0  0
 15 20  1  0  0  0  0
 16 17  2  0  0  0  0
 17 18  1  0  0  0  0
 18 19  1  0  0  0  0
 18 21  2  0  0  0  0
 19 20  2  0  0  0  0
 21 22  1  0  0  0  0
 21 25  1  0  0  0  0
 22 23  1  0  0  0  0
 23 24  1  0  0  0  0
 23 26  1  0  0  0  0
 24 25  2  0  0  0  0
  2 27  1  0  0  0  0
  2 28  1  0  0  0  0
  3 29  1  0  0  0  0
  4 30  1  0  0  0  0
 10 31  1  0  0  0  0
 12 32  1  0  0  0  0
 12 33  1  0  0  0  0
 12 34  1  0  0  0  0
 14 35  1  0  0  0  0
 16 36  1  0  0  0  0
 17 37  1  0  0  0  0
 19 38  1  0  0  0  0
 20 39  1  0  0  0  0
 22 40  1  0  0  0  0
 22 41  1  0  0  0  0
 25 42  1  0  0  0  0
 26 43  1  0  0  0  0
 26 44  1  0  0  0  0
 26 45  1  0  0  0  0
M  END
> <Name>
19

> <IC50[uM]>
0.015

$$$$
19
  -OEChem-05192314333D
 Structure written by MMmdl.
 45 48  0     1  0  0  0  0  0999 V2000
   -6.3863   12.3686  -12.0106 C   0  0  3  0  0  0  0  0  0  0  0  0
   -6.5303   11.8179  -10.7351 C   0  0  0  0  0  0  0  0  0  0  0  0
   -7.7274   10.5747  -13.0322 C   0  0  0  0  0  0  0  0  0  0  0  0
   -6.9939   11.7717  -13.1290 C   0  0  0  0  0  0  0  0  0  0  0  0
   -7.8233   10.0108  -11.7572 C   0  0  0  0  0  0  0  0  0  0  0  0
   -7.2504   10.6246  -10.6026 C   0  0  0  0  0  0  0  0  0  0  0  0
   -7.6148    9.7488   -9.5126 C   0  0  0  0  0  0  0  0  0  0  0  0
   -8.2772    8.7301   -9.9866 N   0  0  0  0  0  0  0  0  0  0  0  0
   -8.4133    8.8585  -11.2996 N   0  0  0  0  0  0  0  0  0  0  0  0
   -7.3367    9.8906   -8.0265 C   0  0  0  0  0  0  0  0  0  0  0  0
   -4.3739   13.6178  -11.5022 N   0  0  0  0  0  0  0  0  0  0  0  0
   -3.4056   14.7196  -11.5963 C   0  0  0  0  0  0  0  0  0  0  0  0
   -5.5407   13.6198  -12.1903 C   0  0  0  0  0  0  0  0  0  0  0  0
   -5.8948   14.5296  -12.9394 O   0  0  0  0  0  0  0  0  0  0  0  0
   -5.9610   10.4852   -7.7361 C   0  0  0  0  0  0  0  0  0  0  0  0
   -4.8098    9.7648   -8.0558 C   0  0  0  0  0  0  0  0  0  0  0  0
   -3.5520   10.3132   -7.8064 C   0  0  0  0  0  0  0  0  0  0  0  0
   -3.4430   11.5871   -7.2363 C   0  0  0  0  0  0  0  0  0  0  0  0
   -4.5944   12.3027   -6.9144 C   0  0  0  0  0  0  0  0  0  0  0  0
   -5.8504   11.7539   -7.1603 C   0  0  0  0  0  0  0  0  0  0  0  0
   -2.0991   12.1752   -6.9687 C   0  0  0  0  0  0  0  0  0  0  0  0
   -1.7663   13.4191   -6.4362 C   0  0  0  0  0  0  0  0  0  0  0  0
   -0.4291   13.4776   -6.3870 N   0  0  0  0  0  0  0  0  0  0  0  0
    0.1723   12.4029   -6.8190 N   0  0  0  0  0  0  0  0  0  0  0  0
   -0.8029   11.5945   -7.2007 C   0  0  0  0  0  0  0  0  0  0  0  0
    0.3904   14.5868   -5.9117 C   0  0  0  0  0  0  0  0  0  0  0  0
   -7.2799   12.9895  -11.8495 H   0  0  0  0  0  0  0  0  0  0  0  0
   -6.0966   12.3009   -9.8720 H   0  0  0  0  0  0  0  0  0  0  0  0
   -8.1900   10.1177  -13.8945 H   0  0  0  0  0  0  0  0  0  0  0  0
   -6.8945   12.2471  -14.0936 H   0  0  0  0  0  0  0  0  0  0  0  0
   -8.0374    9.6016   -7.2571 H   0  0  0  0  0  0  0  0  0  0  0  0
   -4.1641   12.8399  -10.9098 H   0  0  0  0  0  0  0  0  0  0  0  0
   -2.5387   14.5023  -10.9550 H   0  0  0  0  0  0  0  0  0  0  0  0
   -3.0724   14.8267  -12.6391 H   0  0  0  0  0  0  0  0  0  0  0  0
   -3.8811   15.6547  -11.2654 H   0  0  0  0  0  0  0  0  0  0  0  0
   -4.8927    8.7823   -8.4965 H   0  0  0  0  0  0  0  0  0  0  0  0
   -2.6613    9.7546   -8.0533 H   0  0  0  0  0  0  0  0  0  0  0  0
   -3.4418   12.0376   -8.2398 H   0  0  0  0  0  0  0  0  0  0  0  0
   -4.5126   13.2851   -6.4732 H   0  0  0  0  0  0  0  0  0  0  0  0
   -6.7407   12.3097   -6.9056 H   0  0  0  0  0  0  0  0  0  0  0  0
   -2.4554   14.1894   -6.1228 H   0  0  0  0  0  0  0  0  0  0  0  0
   -0.6455   10.6177   -7.6337 H   0  0  0  0  0  0  0  0  0  0  0  0
    1.4543   14.3214   -5.9997 H   0  0  0  0  0  0  0  0  0  0  0  0
    0.1843   15.4810   -6.5183 H   0  0  0  0  0  0  0  0  0  0  0  0
    0.1504   14.7949   -4.8586 H   0  0  0  0  0  0  0  0  0  0  0  0
  1  2  1  0  0  0  0
  1  4  1  0  0  0  0
  1 13  1  0  0  0  0
  2  6  2  0  0  0  0
  3  4  2  0  0  0  0
  3  5  1  0  0  0  0
  5  6  1  0  0  0  0
  5  9  2  0  0  0  0
  6  7  1  0  0  0  0
  7  8  2  0  0  0  0
  7 10  1  0  0  0  0
  8  9  1  0  0  0  0
 10 15  2  0  0  0  0
 11 12  1  0  0  0  0
 11 13  1  0  0  0  0
 13 14  2  0  0  0  0
 15 16  1  0  0  0  0
 15 20  1  0  0  0  0
 16 17  2  0  0  0  0
 17 18  1  0  0  0  0
 18 19  1  0  0  0  0
 18 21  1  0  0  0  0
 19 20  2  0  0  0  0
 21 22  2  0  0  0  0
 21 25  1  0  0  0  0
 22 23  1  0  0  0  0
 23 24  1  0  0  0  0
 23 26  1  0  0  0  0
 24 25  2  0  0  0  0
  1 27  1  0  0  0  0
  2 28  1  0  0  0  0
  3 29  1  0  0  0  0
  4 30  1  0  0  0  0
 10 31  1  0  0  0  0
 11 32  1  0  0  0  0
 12 33  1  0  0  0  0
 12 34  1  0  0  0  0
 12 35  1  0  0  0  0
 16 36  1  0  0  0  0
 17 37  1  0  0  0  0
 18 38  1  0  0  0  0
 19 39  1  0  0  0  0
 20 40  1  0  0  0  0
 22 41  1  0  0  0  0
 25 42  1  0  0  0  0
 26 43  1  0  0  0  0
 26 44  1  0  0  0  0
 26 45  1  0  0  0  0
M  END
> <Name>
19

> <IC50[uM]>
0.015

$$$$
19
  -OEChem-05192314333D
 Structure written by MMmdl.
 45 48  0     1  0  0  0  0  0999 V2000
   -6.3863   12.3686  -12.0106 C   0  0  0  0  0  0  0  0  0  0  0  0
   -6.5303   11.8179  -10.7351 C   0  0  0  0  0  0  0  0  0  0  0  0
   -7.7274   10.5747  -13.0322 C   0  0  0  0  0  0  0  0  0  0  0  0
   -6.9939   11.7717  -13.1290 C   0  0  0  0  0  0  0  0  0  0  0  0
   -7.8233   10.0108  -11.7572 C   0  0  0  0  0  0  0  0  0  0  0  0
   -7.2504   10.6246  -10.6026 C   0  0  3  0  0  0  0  0  0  0  0  0
   -7.6148    9.7488   -9.5126 C   0  0  0  0  0  0  0  0  0  0  0  0
   -8.2772    8.7301   -9.9866 N   0  0  0  0  0  0  0  0  0  0  0  0
   -8.4133    8.8585  -11.2996 N   0  0  0  0  0  0  0  0  0  0  0  0
   -7.3367    9.8906   -8.0265 C   0  0  0  0  0  0  0  0  0  0  0  0
   -4.3739   13.6178  -11.5022 N   0  0  0  0  0  0  0  0  0  0  0  0
   -3.4056   14.7196  -11.5963 C   0  0  0  0  0  0  0  0  0  0  0  0
   -5.5407   13.6198  -12.1903 C   0  0  0  0  0  0  0  0  0  0  0  0
   -5.8948   14.5296  -12.9394 O   0  0  0  0  0  0  0  0  0  0  0  0
   -5.9610   10.4852   -7.7361 C   0  0  0  0  0  0  0  0  0  0  0  0
   -4.8098    9.7648   -8.0558 C   0  0  0  0  0  0  0  0  0  0  0  0
   -3.5520   10.3132   -7.8064 C   0  0  0  0  0  0  0  0  0  0  0  0
   -3.4430   11.5871   -7.2363 C   0  0  0  0  0  0  0  0  0  0  0  0
   -4.5944   12.3027   -6.9144 C   0  0  0  0  0  0  0  0  0  0  0  0
   -5.8504   11.7539   -7.1603 C   0  0  0  0  0  0  0  0  0  0  0  0
   -2.0991   12.1752   -6.9687 C   0  0  0  0  0  0  0  0  0  0  0  0
   -1.7663   13.4191   -6.4362 C   0  0  0  0  0  0  0  0  0  0  0  0
   -0.4291   13.4776   -6.3870 N   0  0  0  0  0  0  0  0  0  0  0  0
    0.1723   12.4029   -6.8190 N   0  0  0  0  0  0  0  0  0  0  0  0
   -0.8029   11.5945   -7.2007 C   0  0  0  0  0  0  0  0  0  0  0  0
    0.3904   14.5868   -5.9117 C   0  0  0  0  0  0  0  0  0  0  0  0
   -6.0966   12.3009   -9.8720 H   0  0  0  0  0  0  0  0  0  0  0  0
   -8.1900   10.1177  -13.8945 H   0  0  0  0  0  0  0  0  0  0  0  0
   -6.8945   12.2471  -14.0936 H   0  0  0  0  0  0  0  0  0  0  0  0
   -6.3254   10.0493  -10.7557 H   0  0  0  0  0  0  0  0  0  0  0  0
   -8.0374    9.6016   -7.2571 H   0  0  0  0  0  0  0  0  0  0  0  0
   -4.1641   12.8399  -10.9098 H   0  0  0  0  0  0  0  0  0  0  0  0
   -2.5387   14.5023  -10.9550 H   0  0  0  0  0  0  0  0  0  0  0  0
   -3.0724   14.8267  -12.6391 H   0  0  0  0  0  0  0  0  0  0  0  0
   -3.8811   15.6547  -11.2654 H   0  0  0  0  0  0  0  0  0  0  0  0
   -4.8927    8.7823   -8.4965 H   0  0  0  0  0  0  0  0  0  0  0  0
   -2.6613    9.7546   -8.0533 H   0  0  0  0  0  0  0  0  0  0  0  0
   -3.4418   12.0376   -8.2398 H   0  0  0  0  0  0  0  0  0  0  0  0
   -4.5126   13.2851   -6.4732 H   0  0  0  0  0  0  0  0  0  0  0  0
   -6.7407   12.3097   -6.9056 H   0  0  0  0  0  0  0  0  0  0  0  0
   -2.4554   14.1894   -6.1228 H   0  0  0  0  0  0  0  0  0  0  0  0
   -0.6455   10.6177   -7.6337 H   0  0  0  0  0  0  0  0  0  0  0  0
    1.4543   14.3214   -5.9997 H   0  0  0  0  0  0  0  0  0  0  0  0
    0.1843   15.4810   -6.5183 H   0  0  0  0  0  0  0  0  0  0  0  0
    0.1504   14.7949   -4.8586 H   0  0  0  0  0  0  0  0  0  0  0  0
  1  2  2  0  0  0  0
  1  4  1  0  0  0  0
  1 13  1  0  0  0  0
  2  6  1  0  0  0  0
  3  4  2  0  0  0  0
  3  5  1  0  0  0  0
  5  6  1  0  0  0  0
  5  9  2  0  0  0  0
  6  7  1  0  0  0  0
  7  8  2  0  0  0  0
  7 10  1  0  0  0  0
  8  9  1  0  0  0  0
 10 15  2  0  0  0  0
 11 12  1  0  0  0  0
 11 13  1  0  0  0  0
 13 14  2  0  0  0  0
 15 16  1  0  0  0  0
 15 20  1  0  0  0  0
 16 17  2  0  0  0  0
 17 18  1  0  0  0  0
 18 19  1  0  0  0  0
 18 21  1  0  0  0  0
 19 20  2  0  0  0  0
 21 22  2  0  0  0  0
 21 25  1  0  0  0  0
 22 23  1  0  0  0  0
 23 24  1  0  0  0  0
 23 26  1  0  0  0  0
 24 25  2  0  0  0  0
  2 27  1  0  0  0  0
  3 28  1  0  0  0  0
  4 29  1  0  0  0  0
  6 30  1  0  0  0  0
 10 31  1  0  0  0  0
 11 32  1  0  0  0  0
 12 33  1  0  0  0  0
 12 34  1  0  0  0  0
 12 35  1  0  0  0  0
 16 36  1  0  0  0  0
 17 37  1  0  0  0  0
 18 38  1  0  0  0  0
 19 39  1  0  0  0  0
 20 40  1  0  0  0  0
 22 41  1  0  0  0  0
 25 42  1  0  0  0  0
 26 43  1  0  0  0  0
 26 44  1  0  0  0  0
 26 45  1  0  0  0  0
M  END
> <Name>
19

> <IC50[uM]>
0.015

$$$$
19
  -OEChem-05192314333D
 Structure written by MMmdl.
 45 48  0     0  0  0  0  0  0999 V2000
   -6.3863   12.3686  -12.0106 C   0  0  0  0  0  0  0  0  0  0  0  0
   -6.5303   11.8179  -10.7351 C   0  0  0  0  0  0  0  0  0  0  0  0
   -7.7274   10.5747  -13.0322 C   0  0  0  0  0  0  0  0  0  0  0  0
   -6.9939   11.7717  -13.1290 C   0  0  0  0  0  0  0  0  0  0  0  0
   -7.8233   10.0108  -11.7572 C   0  0  0  0  0  0  0  0  0  0  0  0
   -7.2504   10.6246  -10.6026 C   0  0  0  0  0  0  0  0  0  0  0  0
   -7.6148    9.7488   -9.5126 C   0  0  0  0  0  0  0  0  0  0  0  0
   -8.2772    8.7301   -9.9866 N   0  0  0  0  0  0  0  0  0  0  0  0
   -8.4133    8.8585  -11.2996 N   0  0  0  0  0  0  0  0  0  0  0  0
   -7.3367    9.8906   -8.0265 C   0  0  0  0  0  0  0  0  0  0  0  0
   -4.3739   13.6178  -11.5022 N   0  0  0  0  0  0  0  0  0  0  0  0
   -3.4056   14.7196  -11.5963 C   0  0  0  0  0  0  0  0  0  0  0  0
   -5.5407   13.6198  -12.1903 C   0  0  0  0  0  0  0  0  0  0  0  0
   -5.8948   14.5296  -12.9394 O   0  0  0  0  0  0  0  0  0  0  0  0
   -5.9610   10.4852   -7.7361 C   0  0  0  0  0  0  0  0  0  0  0  0
   -4.8098    9.7648   -8.0558 C   0  0  0  0  0  0  0  0  0  0  0  0
   -3.5520   10.3132   -7.8064 C   0  0  0  0  0  0  0  0  0  0  0  0
   -3.4430   11.5871   -7.2363 C   0  0  0  0  0  0  0  0  0  0  0  0
   -4.5944   12.3027   -6.9144 C   0  0  0  0  0  0  0  0  0  0  0  0
   -5.8504   11.7539   -7.1603 C   0  0  0  0  0  0  0  0  0  0  0  0
   -2.0991   12.1752   -6.9687 C   0  0  0  0  0  0  0  0  0  0  0  0
   -1.7663   13.4191   -6.4362 C   0  0  0  0  0  0  0  0  0  0  0  0
   -0.4291   13.4776   -6.3870 N   0  0  0  0  0  0  0  0  0  0  0  0
    0.1723   12.4029   -6.8190 N   0  0  0  0  0  0  0  0  0  0  0  0
   -0.8029   11.5945   -7.2007 C   0  0  0  0  0  0  0  0  0  0  0  0
    0.3904   14.5868   -5.9117 C   0  0  0  0  0  0  0  0  0  0  0  0
   -6.0966   12.3009   -9.8720 H   0  0  0  0  0  0  0  0  0  0  0  0
   -8.7487   10.7774  -13.3871 H   0  0  0  0  0  0  0  0  0  0  0  0
   -7.2503    9.8346  -13.6914 H   0  0  0  0  0  0  0  0  0  0  0  0
   -6.8945   12.2471  -14.0936 H   0  0  0  0  0  0  0  0  0  0  0  0
   -8.0374    9.6016   -7.2571 H   0  0  0  0  0  0  0  0  0  0  0  0
   -4.1641   12.8399  -10.9098 H   0  0  0  0  0  0  0  0  0  0  0  0
   -2.5387   14.5023  -10.9550 H   0  0  0  0  0  0  0  0  0  0  0  0
   -3.0724   14.8267  -12.6391 H   0  0  0  0  0  0  0  0  0  0  0  0
   -3.8811   15.6547  -11.2654 H   0  0  0  0  0  0  0  0  0  0  0  0
   -4.8927    8.7823   -8.4965 H   0  0  0  0  0  0  0  0  0  0  0  0
   -2.6613    9.7546   -8.0533 H   0  0  0  0  0  0  0  0  0  0  0  0
   -3.4418   12.0376   -8.2398 H   0  0  0  0  0  0  0  0  0  0  0  0
   -4.5126   13.2851   -6.4732 H   0  0  0  0  0  0  0  0  0  0  0  0
   -6.7407   12.3097   -6.9056 H   0  0  0  0  0  0  0  0  0  0  0  0
   -2.4554   14.1894   -6.1228 H   0  0  0  0  0  0  0  0  0  0  0  0
   -0.6455   10.6177   -7.6337 H   0  0  0  0  0  0  0  0  0  0  0  0
    1.4543   14.3214   -5.9997 H   0  0  0  0  0  0  0  0  0  0  0  0
    0.1843   15.4810   -6.5183 H   0  0  0  0  0  0  0  0  0  0  0  0
    0.1504   14.7949   -4.8586 H   0  0  0  0  0  0  0  0  0  0  0  0
  1  2  1  0  0  0  0
  1  4  2  0  0  0  0
  1 13  1  0  0  0  0
  2  6  2  0  0  0  0
  3  4  1  0  0  0  0
  3  5  1  0  0  0  0
  5  6  1  0  0  0  0
  5  9  2  0  0  0  0
  6  7  1  0  0  0  0
  7  8  2  0  0  0  0
  7 10  1  0  0  0  0
  8  9  1  0  0  0  0
 10 15  2  0  0  0  0
 11 12  1  0  0  0  0
 11 13  1  0  0  0  0
 13 14  2  0  0  0  0
 15 16  1  0  0  0  0
 15 20  1  0  0  0  0
 16 17  2  0  0  0  0
 17 18  1  0  0  0  0
 18 19  1  0  0  0  0
 18 21  1  0  0  0  0
 19 20  2  0  0  0  0
 21 22  2  0  0  0  0
 21 25  1  0  0  0  0
 22 23  1  0  0  0  0
 23 24  1  0  0  0  0
 23 26  1  0  0  0  0
 24 25  2  0  0  0  0
  2 27  1  0  0  0  0
  3 28  1  0  0  0  0
  3 29  1  0  0  0  0
  4 30  1  0  0  0  0
 10 31  1  0  0  0  0
 11 32  1  0  0  0  0
 12 33  1  0  0  0  0
 12 34  1  0  0  0  0
 12 35  1  0  0  0  0
 16 36  1  0  0  0  0
 17 37  1  0  0  0  0
 18 38  1  0  0  0  0
 19 39  1  0  0  0  0
 20 40  1  0  0  0  0
 22 41  1  0  0  0  0
 25 42  1  0  0  0  0
 26 43  1  0  0  0  0
 26 44  1  0  0  0  0
 26 45  1  0  0  0  0
M  END
> <Name>
19

> <IC50[uM]>
0.015

$$$$
19
  -OEChem-05192314333D
 Structure written by MMmdl.
 45 48  0     1  0  0  0  0  0999 V2000
   -6.3863   12.3686  -12.0106 C   0  0  3  0  0  0  0  0  0  0  0  0
   -6.5303   11.8179  -10.7351 C   0  0  0  0  0  0  0  0  0  0  0  0
   -7.7274   10.5747  -13.0322 C   0  0  0  0  0  0  0  0  0  0  0  0
   -6.9939   11.7717  -13.1290 C   0  0  0  0  0  0  0  0  0  0  0  0
   -7.8233   10.0108  -11.7572 C   0  0  0  0  0  0  0  0  0  0  0  0
   -7.2504   10.6246  -10.6026 C   0  0  0  0  0  0  0  0  0  0  0  0
   -7.6148    9.7488   -9.5126 C   0  0  0  0  0  0  0  0  0  0  0  0
   -8.2772    8.7301   -9.9866 N   0  0  0  0  0  0  0  0  0  0  0  0
   -8.4133    8.8585  -11.2996 N   0  0  0  0  0  0  0  0  0  0  0  0
   -7.3367    9.8906   -8.0265 C   0  0  0  0  0  0  0  0  0  0  0  0
   -4.3739   13.6178  -11.5022 N   0  0  0  0  0  0  0  0  0  0  0  0
   -3.4056   14.7196  -11.5963 C   0  0  0  0  0  0  0  0  0  0  0  0
   -5.5407   13.6198  -12.1903 C   0  0  0  0  0  0  0  0  0  0  0  0
   -5.8948   14.5296  -12.9394 O   0  0  0  0  0  0  0  0  0  0  0  0
   -5.9610   10.4852   -7.7361 C   0  0  0  0  0  0  0  0  0  0  0  0
   -4.8098    9.7648   -8.0558 C   0  0  0  0  0  0  0  0  0  0  0  0
   -3.5520   10.3132   -7.8064 C   0  0  0  0  0  0  0  0  0  0  0  0
   -3.4430   11.5871   -7.2363 C   0  0  0  0  0  0  0  0  0  0  0  0
   -4.5944   12.3027   -6.9144 C   0  0  0  0  0  0  0  0  0  0  0  0
   -5.8504   11.7539   -7.1603 C   0  0  0  0  0  0  0  0  0  0  0  0
   -2.0991   12.1752   -6.9687 C   0  0  0  0  0  0  0  0  0  0  0  0
   -1.7663   13.4191   -6.4362 C   0  0  0  0  0  0  0  0  0  0  0  0
   -0.4291   13.4776   -6.3870 N   0  0  0  0  0  0  0  0  0  0  0  0
    0.1723   12.4029   -6.8190 N   0  0  0  0  0  0  0  0  0  0  0  0
   -0.8029   11.5945   -7.2007 C   0  0  0  0  0  0  0  0  0  0  0  0
    0.3904   14.5868   -5.9117 C   0  0  0  0  0  0  0  0  0  0  0  0
   -7.2799   12.9895  -11.8495 H   0  0  0  0  0  0  0  0  0  0  0  0
   -6.0966   12.3009   -9.8720 H   0  0  0  0  0  0  0  0  0  0  0  0
   -8.1900   10.1177  -13.8945 H   0  0  0  0  0  0  0  0  0  0  0  0
   -6.8945   12.2471  -14.0936 H   0  0  0  0  0  0  0  0  0  0  0  0
   -8.0374    9.6016   -7.2571 H   0  0  0  0  0  0  0  0  0  0  0  0
   -4.1641   12.8399  -10.9098 H   0  0  0  0  0  0  0  0  0  0  0  0
   -2.5387   14.5023  -10.9550 H   0  0  0  0  0  0  0  0  0  0  0  0
   -3.0724   14.8267  -12.6391 H   0  0  0  0  0  0  0  0  0  0  0  0
   -3.8811   15.6547  -11.2654 H   0  0  0  0  0  0  0  0  0  0  0  0
   -4.8927    8.7823   -8.4965 H   0  0  0  0  0  0  0  0  0  0  0  0
   -2.6613    9.7546   -8.0533 H   0  0  0  0  0  0  0  0  0  0  0  0
   -4.5126   13.2851   -6.4732 H   0  0  0  0  0  0  0  0  0  0  0  0
   -6.3761   12.4521   -7.8283 H   0  0  0  0  0  0  0  0  0  0  0  0
   -6.3718   11.7094   -6.1927 H   0  0  0  0  0  0  0  0  0  0  0  0
   -2.4554   14.1894   -6.1228 H   0  0  0  0  0  0  0  0  0  0  0  0
   -0.6455   10.6177   -7.6337 H   0  0  0  0  0  0  0  0  0  0  0  0
    1.4543   14.3214   -5.9997 H   0  0  0  0  0  0  0  0  0  0  0  0
    0.1843   15.4810   -6.5183 H   0  0  0  0  0  0  0  0  0  0  0  0
    0.1504   14.7949   -4.8586 H   0  0  0  0  0  0  0  0  0  0  0  0
  1  2  1  0  0  0  0
  1  4  1  0  0  0  0
  1 13  1  0  0  0  0
  2  6  2  0  0  0  0
  3  4  2  0  0  0  0
  3  5  1  0  0  0  0
  5  6  1  0  0  0  0
  5  9  2  0  0  0  0
  6  7  1  0  0  0  0
  7  8  2  0  0  0  0
  7 10  1  0  0  0  0
  8  9  1  0  0  0  0
 10 15  2  3  0  0  0
 11 12  1  0  0  0  0
 11 13  1  0  0  0  0
 13 14  2  0  0  0  0
 15 16  1  0  0  0  0
 15 20  1  0  0  0  0
 16 17  2  0  0  0  0
 17 18  1  0  0  0  0
 18 19  2  0  0  0  0
 18 21  1  0  0  0  0
 19 20  1  0  0  0  0
 21 22  2  0  0  0  0
 21 25  1  0  0  0  0
 22 23  1  0  0  0  0
 23 24  1  0  0  0  0
 23 26  1  0  0  0  0
 24 25  2  0  0  0  0
  1 27  1  0  0  0  0
  2 28  1  0  0  0  0
  3 29  1  0  0  0  0
  4 30  1  0  0  0  0
 10 31  1  0  0  0  0
 11 32  1  0  0  0  0
 12 33  1  0  0  0  0
 12 34  1  0  0  0  0
 12 35  1  0  0  0  0
 16 36  1  0  0  0  0
 17 37  1  0  0  0  0
 19 38  1  0  0  0  0
 20 39  1  0  0  0  0
 20 40  1  0  0  0  0
 22 41  1  0  0  0  0
 25 42  1  0  0  0  0
 26 43  1  0  0  0  0
 26 44  1  0  0  0  0
 26 45  1  0  0  0  0
M  END
> <Name>
19

> <IC50[uM]>
0.015

$$$$
19
  -OEChem-05192314333D
 Structure written by MMmdl.
 45 48  0     1  0  0  0  0  0999 V2000
   -6.3863   12.3686  -12.0106 C   0  0  0  0  0  0  0  0  0  0  0  0
   -6.5303   11.8179  -10.7351 C   0  0  0  0  0  0  0  0  0  0  0  0
   -7.7274   10.5747  -13.0322 C   0  0  0  0  0  0  0  0  0  0  0  0
   -6.9939   11.7717  -13.1290 C   0  0  0  0  0  0  0  0  0  0  0  0
   -7.8233   10.0108  -11.7572 C   0  0  0  0  0  0  0  0  0  0  0  0
   -7.2504   10.6246  -10.6026 C   0  0  3  0  0  0  0  0  0  0  0  0
   -7.6148    9.7488   -9.5126 C   0  0  0  0  0  0  0  0  0  0  0  0
   -8.2772    8.7301   -9.9866 N   0  0  0  0  0  0  0  0  0  0  0  0
   -8.4133    8.8585  -11.2996 N   0  0  0  0  0  0  0  0  0  0  0  0
   -7.3367    9.8906   -8.0265 C   0  0  0  0  0  0  0  0  0  0  0  0
   -4.3739   13.6178  -11.5022 N   0  0  0  0  0  0  0  0  0  0  0  0
   -3.4056   14.7196  -11.5963 C   0  0  0  0  0  0  0  0  0  0  0  0
   -5.5407   13.6198  -12.1903 C   0  0  0  0  0  0  0  0  0  0  0  0
   -5.8948   14.5296  -12.9394 O   0  0  0  0  0  0  0  0  0  0  0  0
   -5.9610   10.4852   -7.7361 C   0  0  0  0  0  0  0  0  0  0  0  0
   -4.8098    9.7648   -8.0558 C   0  0  0  0  0  0  0  0  0  0  0  0
   -3.5520   10.3132   -7.8064 C   0  0  0  0  0  0  0  0  0  0  0  0
   -3.4430   11.5871   -7.2363 C   0  0  0  0  0  0  0  0  0  0  0  0
   -4.5944   12.3027   -6.9144 C   0  0  0  0  0  0  0  0  0  0  0  0
   -5.8504   11.7539   -7.1603 C   0  0  0  0  0  0  0  0  0  0  0  0
   -2.0991   12.1752   -6.9687 C   0  0  0  0  0  0  0  0  0  0  0  0
   -1.7663   13.4191   -6.4362 C   0  0  0  0  0  0  0  0  0  0  0  0
   -0.4291   13.4776   -6.3870 N   0  0  0  0  0  0  0  0  0  0  0  0
    0.1723   12.4029   -6.8190 N   0  0  0  0  0  0  0  0  0  0  0  0
   -0.8029   11.5945   -7.2007 C   0  0  0  0  0  0  0  0  0  0  0  0
    0.3904   14.5868   -5.9117 C   0  0  0  0  0  0  0  0  0  0  0  0
   -6.0966   12.3009   -9.8720 H   0  0  0  0  0  0  0  0  0  0  0  0
   -8.1900   10.1177  -13.8945 H   0  0  0  0  0  0  0  0  0  0  0  0
   -6.8945   12.2471  -14.0936 H   0  0  0  0  0  0  0  0  0  0  0  0
   -6.3254   10.0493  -10.7557 H   0  0  0  0  0  0  0  0  0  0  0  0
   -8.0374    9.6016   -7.2571 H   0  0  0  0  0  0  0  0  0  0  0  0
   -4.1641   12.8399  -10.9098 H   0  0  0  0  0  0  0  0  0  0  0  0
   -2.5387   14.5023  -10.9550 H   0  0  0  0  0  0  0  0  0  0  0  0
   -3.0724   14.8267  -12.6391 H   0  0  0  0  0  0  0  0  0  0  0  0
   -3.8811   15.6547  -11.2654 H   0  0  0  0  0  0  0  0  0  0  0  0
   -4.8927    8.7823   -8.4965 H   0  0  0  0  0  0  0  0  0  0  0  0
   -2.6613    9.7546   -8.0533 H   0  0  0  0  0  0  0  0  0  0  0  0
   -4.5126   13.2851   -6.4732 H   0  0  0  0  0  0  0  0  0  0  0  0
   -6.3761   12.4521   -7.8283 H   0  0  0  0  0  0  0  0  0  0  0  0
   -6.3718   11.7094   -6.1927 H   0  0  0  0  0  0  0  0  0  0  0  0
   -2.4554   14.1894   -6.1228 H   0  0  0  0  0  0  0  0  0  0  0  0
   -0.6455   10.6177   -7.6337 H   0  0  0  0  0  0  0  0  0  0  0  0
    1.4543   14.3214   -5.9997 H   0  0  0  0  0  0  0  0  0  0  0  0
    0.1843   15.4810   -6.5183 H   0  0  0  0  0  0  0  0  0  0  0  0
    0.1504   14.7949   -4.8586 H   0  0  0  0  0  0  0  0  0  0  0  0
  1  2  2  0  0  0  0
  1  4  1  0  0  0  0
  1 13  1  0  0  0  0
  2  6  1  0  0  0  0
  3  4  2  0  0  0  0
  3  5  1  0  0  0  0
  5  6  1  0  0  0  0
  5  9  2  0  0  0  0
  6  7  1  0  0  0  0
  7  8  2  0  0  0  0
  7 10  1  0  0  0  0
  8  9  1  0  0  0  0
 10 15  2  3  0  0  0
 11 12  1  0  0  0  0
 11 13  1  0  0  0  0
 13 14  2  0  0  0  0
 15 16  1  0  0  0  0
 15 20  1  0  0  0  0
 16 17  2  0  0  0  0
 17 18  1  0  0  0  0
 18 19  2  0  0  0  0
 18 21  1  0  0  0  0
 19 20  1  0  0  0  0
 21 22  2  0  0  0  0
 21 25  1  0  0  0  0
 22 23  1  0  0  0  0
 23 24  1  0  0  0  0
 23 26  1  0  0  0  0
 24 25  2  0  0  0  0
  2 27  1  0  0  0  0
  3 28  1  0  0  0  0
  4 29  1  0  0  0  0
  6 30  1  0  0  0  0
 10 31  1  0  0  0  0
 11 32  1  0  0  0  0
 12 33  1  0  0  0  0
 12 34  1  0  0  0  0
 12 35  1  0  0  0  0
 16 36  1  0  0  0  0
 17 37  1  0  0  0  0
 19 38  1  0  0  0  0
 20 39  1  0  0  0  0
 20 40  1  0  0  0  0
 22 41  1  0  0  0  0
 25 42  1  0  0  0  0
 26 43  1  0  0  0  0
 26 44  1  0  0  0  0
 26 45  1  0  0  0  0
M  END
> <Name>
19

> <IC50[uM]>
0.015

$$$$
19
  -OEChem-05192314333D
 Structure written by MMmdl.
 45 48  0     0  0  0  0  0  0999 V2000
   -6.3863   12.3686  -12.0106 C   0  0  0  0  0  0  0  0  0  0  0  0
   -6.5303   11.8179  -10.7351 C   0  0  0  0  0  0  0  0  0  0  0  0
   -7.7274   10.5747  -13.0322 C   0  0  0  0  0  0  0  0  0  0  0  0
   -6.9939   11.7717  -13.1290 C   0  0  0  0  0  0  0  0  0  0  0  0
   -7.8233   10.0108  -11.7572 C   0  0  0  0  0  0  0  0  0  0  0  0
   -7.2504   10.6246  -10.6026 C   0  0  0  0  0  0  0  0  0  0  0  0
   -7.6148    9.7488   -9.5126 C   0  0  0  0  0  0  0  0  0  0  0  0
   -8.2772    8.7301   -9.9866 N   0  0  0  0  0  0  0  0  0  0  0  0
   -8.4133    8.8585  -11.2996 N   0  0  0  0  0  0  0  0  0  0  0  0
   -7.3367    9.8906   -8.0265 C   0  0  0  0  0  0  0  0  0  0  0  0
   -4.3739   13.6178  -11.5022 N   0  0  0  0  0  0  0  0  0  0  0  0
   -3.4056   14.7196  -11.5963 C   0  0  0  0  0  0  0  0  0  0  0  0
   -5.5407   13.6198  -12.1903 C   0  0  0  0  0  0  0  0  0  0  0  0
   -5.8948   14.5296  -12.9394 O   0  0  0  0  0  0  0  0  0  0  0  0
   -5.9610   10.4852   -7.7361 C   0  0  0  0  0  0  0  0  0  0  0  0
   -4.8098    9.7648   -8.0558 C   0  0  0  0  0  0  0  0  0  0  0  0
   -3.5520   10.3132   -7.8064 C   0  0  0  0  0  0  0  0  0  0  0  0
   -3.4430   11.5871   -7.2363 C   0  0  0  0  0  0  0  0  0  0  0  0
   -4.5944   12.3027   -6.9144 C   0  0  0  0  0  0  0  0  0  0  0  0
   -5.8504   11.7539   -7.1603 C   0  0  0  0  0  0  0  0  0  0  0  0
   -2.0991   12.1752   -6.9687 C   0  0  0  0  0  0  0  0  0  0  0  0
   -1.7663   13.4191   -6.4362 C   0  0  0  0  0  0  0  0  0  0  0  0
   -0.4291   13.4776   -6.3870 N   0  0  0  0  0  0  0  0  0  0  0  0
    0.1723   12.4029   -6.8190 N   0  0  0  0  0  0  0  0  0  0  0  0
   -0.8029   11.5945   -7.2007 C   0  0  0  0  0  0  0  0  0  0  0  0
    0.3904   14.5868   -5.9117 C   0  0  0  0  0  0  0  0  0  0  0  0
   -6.0966   12.3009   -9.8720 H   0  0  0  0  0  0  0  0  0  0  0  0
   -8.7487   10.7774  -13.3871 H   0  0  0  0  0  0  0  0  0  0  0  0
   -7.2503    9.8346  -13.6914 H   0  0  0  0  0  0  0  0  0  0  0  0
   -6.8945   12.2471  -14.0936 H   0  0  0  0  0  0  0  0  0  0  0  0
   -8.0374    9.6016   -7.2571 H   0  0  0  0  0  0  0  0  0  0  0  0
   -4.1641   12.8399  -10.9098 H   0  0  0  0  0  0  0  0  0  0  0  0
   -2.5387   14.5023  -10.9550 H   0  0  0  0  0  0  0  0  0  0  0  0
   -3.0724   14.8267  -12.6391 H   0  0  0  0  0  0  0  0  0  0  0  0
   -3.8811   15.6547  -11.2654 H   0  0  0  0  0  0  0  0  0  0  0  0
   -4.8927    8.7823   -8.4965 H   0  0  0  0  0  0  0  0  0  0  0  0
   -2.6613    9.7546   -8.0533 H   0  0  0  0  0  0  0  0  0  0  0  0
   -4.5126   13.2851   -6.4732 H   0  0  0  0  0  0  0  0  0  0  0  0
   -6.3761   12.4521   -7.8283 H   0  0  0  0  0  0  0  0  0  0  0  0
   -6.3718   11.7094   -6.1927 H   0  0  0  0  0  0  0  0  0  0  0  0
   -2.4554   14.1894   -6.1228 H   0  0  0  0  0  0  0  0  0  0  0  0
   -0.6455   10.6177   -7.6337 H   0  0  0  0  0  0  0  0  0  0  0  0
    1.4543   14.3214   -5.9997 H   0  0  0  0  0  0  0  0  0  0  0  0
    0.1843   15.4810   -6.5183 H   0  0  0  0  0  0  0  0  0  0  0  0
    0.1504   14.7949   -4.8586 H   0  0  0  0  0  0  0  0  0  0  0  0
  1  2  1  0  0  0  0
  1  4  2  0  0  0  0
  1 13  1  0  0  0  0
  2  6  2  0  0  0  0
  3  4  1  0  0  0  0
  3  5  1  0  0  0  0
  5  6  1  0  0  0  0
  5  9  2  0  0  0  0
  6  7  1  0  0  0  0
  7  8  2  0  0  0  0
  7 10  1  0  0  0  0
  8  9  1  0  0  0  0
 10 15  2  3  0  0  0
 11 12  1  0  0  0  0
 11 13  1  0  0  0  0
 13 14  2  0  0  0  0
 15 16  1  0  0  0  0
 15 20  1  0  0  0  0
 16 17  2  0  0  0  0
 17 18  1  0  0  0  0
 18 19  2  0  0  0  0
 18 21  1  0  0  0  0
 19 20  1  0  0  0  0
 21 22  2  0  0  0  0
 21 25  1  0  0  0  0
 22 23  1  0  0  0  0
 23 24  1  0  0  0  0
 23 26  1  0  0  0  0
 24 25  2  0  0  0  0
  2 27  1  0  0  0  0
  3 28  1  0  0  0  0
  3 29  1  0  0  0  0
  4 30  1  0  0  0  0
 10 31  1  0  0  0  0
 11 32  1  0  0  0  0
 12 33  1  0  0  0  0
 12 34  1  0  0  0  0
 12 35  1  0  0  0  0
 16 36  1  0  0  0  0
 17 37  1  0  0  0  0
 19 38  1  0  0  0  0
 20 39  1  0  0  0  0
 20 40  1  0  0  0  0
 22 41  1  0  0  0  0
 25 42  1  0  0  0  0
 26 43  1  0  0  0  0
 26 44  1  0  0  0  0
 26 45  1  0  0  0  0
M  END
> <Name>
19

> <IC50[uM]>
0.015

$$$$
19
  -OEChem-05192314333D
 Structure written by MMmdl.
 45 48  0     1  0  0  0  0  0999 V2000
   -6.3863   12.3686  -12.0106 C   0  0  3  0  0  0  0  0  0  0  0  0
   -6.5303   11.8179  -10.7351 C   0  0  0  0  0  0  0  0  0  0  0  0
   -7.7274   10.5747  -13.0322 C   0  0  0  0  0  0  0  0  0  0  0  0
   -6.9939   11.7717  -13.1290 C   0  0  0  0  0  0  0  0  0  0  0  0
   -7.8233   10.0108  -11.7572 C   0  0  0  0  0  0  0  0  0  0  0  0
   -7.2504   10.6246  -10.6026 C   0  0  0  0  0  0  0  0  0  0  0  0
   -7.6148    9.7488   -9.5126 C   0  0  0  0  0  0  0  0  0  0  0  0
   -8.2772    8.7301   -9.9866 N   0  0  0  0  0  0  0  0  0  0  0  0
   -8.4133    8.8585  -11.2996 N   0  0  0  0  0  0  0  0  0  0  0  0
   -7.3367    9.8906   -8.0265 C   0  0  0  0  0  0  0  0  0  0  0  0
   -4.3739   13.6178  -11.5022 N   0  0  0  0  0  0  0  0  0  0  0  0
   -3.4056   14.7196  -11.5963 C   0  0  0  0  0  0  0  0  0  0  0  0
   -5.5407   13.6198  -12.1903 C   0  0  0  0  0  0  0  0  0  0  0  0
   -5.8948   14.5296  -12.9394 O   0  0  0  0  0  0  0  0  0  0  0  0
   -5.9610   10.4852   -7.7361 C   0  0  0  0  0  0  0  0  0  0  0  0
   -4.8098    9.7648   -8.0558 C   0  0  0  0  0  0  0  0  0  0  0  0
   -3.5520   10.3132   -7.8064 C   0  0  0  0  0  0  0  0  0  0  0  0
   -3.4430   11.5871   -7.2363 C   0  0  0  0  0  0  0  0  0  0  0  0
   -4.5944   12.3027   -6.9144 C   0  0  0  0  0  0  0  0  0  0  0  0
   -5.8504   11.7539   -7.1603 C   0  0  0  0  0  0  0  0  0  0  0  0
   -2.0991   12.1752   -6.9687 C   0  0  0  0  0  0  0  0  0  0  0  0
   -1.7663   13.4191   -6.4362 C   0  0  0  0  0  0  0  0  0  0  0  0
   -0.4291   13.4776   -6.3870 N   0  0  0  0  0  0  0  0  0  0  0  0
    0.1723   12.4029   -6.8190 N   0  0  0  0  0  0  0  0  0  0  0  0
   -0.8029   11.5945   -7.2007 C   0  0  0  0  0  0  0  0  0  0  0  0
    0.3904   14.5868   -5.9117 C   0  0  0  0  0  0  0  0  0  0  0  0
   -7.2799   12.9895  -11.8495 H   0  0  0  0  0  0  0  0  0  0  0  0
   -6.0966   12.3009   -9.8720 H   0  0  0  0  0  0  0  0  0  0  0  0
   -8.1900   10.1177  -13.8945 H   0  0  0  0  0  0  0  0  0  0  0  0
   -6.8945   12.2471  -14.0936 H   0  0  0  0  0  0  0  0  0  0  0  0
   -8.0374    9.6016   -7.2571 H   0  0  0  0  0  0  0  0  0  0  0  0
   -2.5387   14.5023  -10.9550 H   0  0  0  0  0  0  0  0  0  0  0  0
   -3.0724   14.8267  -12.6391 H   0  0  0  0  0  0  0  0  0  0  0  0
   -3.8811   15.6547  -11.2654 H   0  0  0  0  0  0  0  0  0  0  0  0
   -5.2461   15.2234  -12.9243 H   0  0  0  0  0  0  0  0  0  0  0  0
   -4.8927    8.7823   -8.4965 H   0  0  0  0  0  0  0  0  0  0  0  0
   -2.6613    9.7546   -8.0533 H   0  0  0  0  0  0  0  0  0  0  0  0
   -3.4418   12.0376   -8.2398 H   0  0  0  0  0  0  0  0  0  0  0  0
   -4.5126   13.2851   -6.4732 H   0  0  0  0  0  0  0  0  0  0  0  0
   -6.7407   12.3097   -6.9056 H   0  0  0  0  0  0  0  0  0  0  0  0
   -2.4554   14.1894   -6.1228 H   0  0  0  0  0  0  0  0  0  0  0  0
   -0.6455   10.6177   -7.6337 H   0  0  0  0  0  0  0  0  0  0  0  0
    1.4543   14.3214   -5.9997 H   0  0  0  0  0  0  0  0  0  0  0  0
    0.1843   15.4810   -6.5183 H   0  0  0  0  0  0  0  0  0  0  0  0
    0.1504   14.7949   -4.8586 H   0  0  0  0  0  0  0  0  0  0  0  0
  1  2  1  0  0  0  0
  1  4  1  0  0  0  0
  1 13  1  0  0  0  0
  2  6  2  0  0  0  0
  3  4  2  0  0  0  0
  3  5  1  0  0  0  0
  5  6  1  0  0  0  0
  5  9  2  0  0  0  0
  6  7  1  0  0  0  0
  7  8  2  0  0  0  0
  7 10  1  0  0  0  0
  8  9  1  0  0  0  0
 10 15  2  0  0  0  0
 11 12  1  0  0  0  0
 11 13  2  0  0  0  0
 13 14  1  0  0  0  0
 15 16  1  0  0  0  0
 15 20  1  0  0  0  0
 16 17  2  0  0  0  0
 17 18  1  0  0  0  0
 18 19  1  0  0  0  0
 18 21  1  0  0  0  0
 19 20  2  0  0  0  0
 21 22  2  0  0  0  0
 21 25  1  0  0  0  0
 22 23  1  0  0  0  0
 23 24  1  0  0  0  0
 23 26  1  0  0  0  0
 24 25  2  0  0  0  0
  1 27  1  0  0  0  0
  2 28  1  0  0  0  0
  3 29  1  0  0  0  0
  4 30  1  0  0  0  0
 10 31  1  0  0  0  0
 12 32  1  0  0  0  0
 12 33  1  0  0  0  0
 12 34  1  0  0  0  0
 14 35  1  0  0  0  0
 16 36  1  0  0  0  0
 17 37  1  0  0  0  0
 18 38  1  0  0  0  0
 19 39  1  0  0  0  0
 20 40  1  0  0  0  0
 22 41  1  0  0  0  0
 25 42  1  0  0  0  0
 26 43  1  0  0  0  0
 26 44  1  0  0  0  0
 26 45  1  0  0  0  0
M  END
> <Name>
19

> <IC50[uM]>
0.015

$$$$
19
  -OEChem-05192314333D
 Structure written by MMmdl.
 45 48  0     1  0  0  0  0  0999 V2000
   -6.3863   12.3686  -12.0106 C   0  0  0  0  0  0  0  0  0  0  0  0
   -6.5303   11.8179  -10.7351 C   0  0  0  0  0  0  0  0  0  0  0  0
   -7.7274   10.5747  -13.0322 C   0  0  0  0  0  0  0  0  0  0  0  0
   -6.9939   11.7717  -13.1290 C   0  0  0  0  0  0  0  0  0  0  0  0
   -7.8233   10.0108  -11.7572 C   0  0  0  0  0  0  0  0  0  0  0  0
   -7.2504   10.6246  -10.6026 C   0  0  3  0  0  0  0  0  0  0  0  0
   -7.6148    9.7488   -9.5126 C   0  0  0  0  0  0  0  0  0  0  0  0
   -8.2772    8.7301   -9.9866 N   0  0  0  0  0  0  0  0  0  0  0  0
   -8.4133    8.8585  -11.2996 N   0  0  0  0  0  0  0  0  0  0  0  0
   -7.3367    9.8906   -8.0265 C   0  0  0  0  0  0  0  0  0  0  0  0
   -4.3739   13.6178  -11.5022 N   0  0  0  0  0  0  0  0  0  0  0  0
   -3.4056   14.7196  -11.5963 C   0  0  0  0  0  0  0  0  0  0  0  0
   -5.5407   13.6198  -12.1903 C   0  0  0  0  0  0  0  0  0  0  0  0
   -5.8948   14.5296  -12.9394 O   0  0  0  0  0  0  0  0  0  0  0  0
   -5.9610   10.4852   -7.7361 C   0  0  0  0  0  0  0  0  0  0  0  0
   -4.8098    9.7648   -8.0558 C   0  0  0  0  0  0  0  0  0  0  0  0
   -3.5520   10.3132   -7.8064 C   0  0  0  0  0  0  0  0  0  0  0  0
   -3.4430   11.5871   -7.2363 C   0  0  0  0  0  0  0  0  0  0  0  0
   -4.5944   12.3027   -6.9144 C   0  0  0  0  0  0  0  0  0  0  0  0
   -5.8504   11.7539   -7.1603 C   0  0  0  0  0  0  0  0  0  0  0  0
   -2.0991   12.1752   -6.9687 C   0  0  0  0  0  0  0  0  0  0  0  0
   -1.7663   13.4191   -6.4362 C   0  0  0  0  0  0  0  0  0  0  0  0
   -0.4291   13.4776   -6.3870 N   0  0  0  0  0  0  0  0  0  0  0  0
    0.1723   12.4029   -6.8190 N   0  0  0  0  0  0  0  0  0  0  0  0
   -0.8029   11.5945   -7.2007 C   0  0  0  0  0  0  0  0  0  0  0  0
    0.3904   14.5868   -5.9117 C   0  0  0  0  0  0  0  0  0  0  0  0
   -6.0966   12.3009   -9.8720 H   0  0  0  0  0  0  0  0  0  0  0  0
   -8.1900   10.1177  -13.8945 H   0  0  0  0  0  0  0  0  0  0  0  0
   -6.8945   12.2471  -14.0936 H   0  0  0  0  0  0  0  0  0  0  0  0
   -6.3254   10.0493  -10.7557 H   0  0  0  0  0  0  0  0  0  0  0  0
   -8.0374    9.6016   -7.2571 H   0  0  0  0  0  0  0  0  0  0  0  0
   -2.5387   14.5023  -10.9550 H   0  0  0  0  0  0  0  0  0  0  0  0
   -3.0724   14.8267  -12.6391 H   0  0  0  0  0  0  0  0  0  0  0  0
   -3.8811   15.6547  -11.2654 H   0  0  0  0  0  0  0  0  0  0  0  0
   -5.2461   15.2234  -12.9243 H   0  0  0  0  0  0  0  0  0  0  0  0
   -4.8927    8.7823   -8.4965 H   0  0  0  0  0  0  0  0  0  0  0  0
   -2.6613    9.7546   -8.0533 H   0  0  0  0  0  0  0  0  0  0  0  0
   -3.4418   12.0376   -8.2398 H   0  0  0  0  0  0  0  0  0  0  0  0
   -4.5126   13.2851   -6.4732 H   0  0  0  0  0  0  0  0  0  0  0  0
   -6.7407   12.3097   -6.9056 H   0  0  0  0  0  0  0  0  0  0  0  0
   -2.4554   14.1894   -6.1228 H   0  0  0  0  0  0  0  0  0  0  0  0
   -0.6455   10.6177   -7.6337 H   0  0  0  0  0  0  0  0  0  0  0  0
    1.4543   14.3214   -5.9997 H   0  0  0  0  0  0  0  0  0  0  0  0
    0.1843   15.4810   -6.5183 H   0  0  0  0  0  0  0  0  0  0  0  0
    0.1504   14.7949   -4.8586 H   0  0  0  0  0  0  0  0  0  0  0  0
  1  2  2  0  0  0  0
  1  4  1  0  0  0  0
  1 13  1  0  0  0  0
  2  6  1  0  0  0  0
  3  4  2  0  0  0  0
  3  5  1  0  0  0  0
  5  6  1  0  0  0  0
  5  9  2  0  0  0  0
  6  7  1  0  0  0  0
  7  8  2  0  0  0  0
  7 10  1  0  0  0  0
  8  9  1  0  0  0  0
 10 15  2  0  0  0  0
 11 12  1  0  0  0  0
 11 13  2  0  0  0  0
 13 14  1  0  0  0  0
 15 16  1  0  0  0  0
 15 20  1  0  0  0  0
 16 17  2  0  0  0  0
 17 18  1  0  0  0  0
 18 19  1  0  0  0  0
 18 21  1  0  0  0  0
 19 20  2  0  0  0  0
 21 22  2  0  0  0  0
 21 25  1  0  0  0  0
 22 23  1  0  0  0  0
 23 24  1  0  0  0  0
 23 26  1  0  0  0  0
 24 25  2  0  0  0  0
  2 27  1  0  0  0  0
  3 28  1  0  0  0  0
  4 29  1  0  0  0  0
  6 30  1  0  0  0  0
 10 31  1  0  0  0  0
 12 32  1  0  0  0  0
 12 33  1  0  0  0  0
 12 34  1  0  0  0  0
 14 35  1  0  0  0  0
 16 36  1  0  0  0  0
 17 37  1  0  0  0  0
 18 38  1  0  0  0  0
 19 39  1  0  0  0  0
 20 40  1  0  0  0  0
 22 41  1  0  0  0  0
 25 42  1  0  0  0  0
 26 43  1  0  0  0  0
 26 44  1  0  0  0  0
 26 45  1  0  0  0  0
M  END
> <Name>
19

> <IC50[uM]>
0.015

$$$$
19
  -OEChem-05192314333D
 Structure written by MMmdl.
 45 48  0     0  0  0  0  0  0999 V2000
   -6.3863   12.3686  -12.0106 C   0  0  0  0  0  0  0  0  0  0  0  0
   -6.5303   11.8179  -10.7351 C   0  0  0  0  0  0  0  0  0  0  0  0
   -7.7274   10.5747  -13.0322 C   0  0  0  0  0  0  0  0  0  0  0  0
   -6.9939   11.7717  -13.1290 C   0  0  0  0  0  0  0  0  0  0  0  0
   -7.8233   10.0108  -11.7572 C   0  0  0  0  0  0  0  0  0  0  0  0
   -7.2504   10.6246  -10.6026 C   0  0  0  0  0  0  0  0  0  0  0  0
   -7.6148    9.7488   -9.5126 C   0  0  0  0  0  0  0  0  0  0  0  0
   -8.2772    8.7301   -9.9866 N   0  0  0  0  0  0  0  0  0  0  0  0
   -8.4133    8.8585  -11.2996 N   0  0  0  0  0  0  0  0  0  0  0  0
   -7.3367    9.8906   -8.0265 C   0  0  0  0  0  0  0  0  0  0  0  0
   -4.3739   13.6178  -11.5022 N   0  0  0  0  0  0  0  0  0  0  0  0
   -3.4056   14.7196  -11.5963 C   0  0  0  0  0  0  0  0  0  0  0  0
   -5.5407   13.6198  -12.1903 C   0  0  0  0  0  0  0  0  0  0  0  0
   -5.8948   14.5296  -12.9394 O   0  0  0  0  0  0  0  0  0  0  0  0
   -5.9610   10.4852   -7.7361 C   0  0  0  0  0  0  0  0  0  0  0  0
   -4.8098    9.7648   -8.0558 C   0  0  0  0  0  0  0  0  0  0  0  0
   -3.5520   10.3132   -7.8064 C   0  0  0  0  0  0  0  0  0  0  0  0
   -3.4430   11.5871   -7.2363 C   0  0  0  0  0  0  0  0  0  0  0  0
   -4.5944   12.3027   -6.9144 C   0  0  0  0  0  0  0  0  0  0  0  0
   -5.8504   11.7539   -7.1603 C   0  0  0  0  0  0  0  0  0  0  0  0
   -2.0991   12.1752   -6.9687 C   0  0  0  0  0  0  0  0  0  0  0  0
   -1.7663   13.4191   -6.4362 C   0  0  0  0  0  0  0  0  0  0  0  0
   -0.4291   13.4776   -6.3870 N   0  0  0  0  0  0  0  0  0  0  0  0
    0.1723   12.4029   -6.8190 N   0  0  0  0  0  0  0  0  0  0  0  0
   -0.8029   11.5945   -7.2007 C   0  0  0  0  0  0  0  0  0  0  0  0
    0.3904   14.5868   -5.9117 C   0  0  0  0  0  0  0  0  0  0  0  0
   -6.0966   12.3009   -9.8720 H   0  0  0  0  0  0  0  0  0  0  0  0
   -8.7487   10.7774  -13.3871 H   0  0  0  0  0  0  0  0  0  0  0  0
   -7.2503    9.8346  -13.6914 H   0  0  0  0  0  0  0  0  0  0  0  0
   -6.8945   12.2471  -14.0936 H   0  0  0  0  0  0  0  0  0  0  0  0
   -8.0374    9.6016   -7.2571 H   0  0  0  0  0  0  0  0  0  0  0  0
   -2.5387   14.5023  -10.9550 H   0  0  0  0  0  0  0  0  0  0  0  0
   -3.0724   14.8267  -12.6391 H   0  0  0  0  0  0  0  0  0  0  0  0
   -3.8811   15.6547  -11.2654 H   0  0  0  0  0  0  0  0  0  0  0  0
   -5.2461   15.2234  -12.9243 H   0  0  0  0  0  0  0  0  0  0  0  0
   -4.8927    8.7823   -8.4965 H   0  0  0  0  0  0  0  0  0  0  0  0
   -2.6613    9.7546   -8.0533 H   0  0  0  0  0  0  0  0  0  0  0  0
   -3.4418   12.0376   -8.2398 H   0  0  0  0  0  0  0  0  0  0  0  0
   -4.5126   13.2851   -6.4732 H   0  0  0  0  0  0  0  0  0  0  0  0
   -6.7407   12.3097   -6.9056 H   0  0  0  0  0  0  0  0  0  0  0  0
   -2.4554   14.1894   -6.1228 H   0  0  0  0  0  0  0  0  0  0  0  0
   -0.6455   10.6177   -7.6337 H   0  0  0  0  0  0  0  0  0  0  0  0
    1.4543   14.3214   -5.9997 H   0  0  0  0  0  0  0  0  0  0  0  0
    0.1843   15.4810   -6.5183 H   0  0  0  0  0  0  0  0  0  0  0  0
    0.1504   14.7949   -4.8586 H   0  0  0  0  0  0  0  0  0  0  0  0
  1  2  1  0  0  0  0
  1  4  2  0  0  0  0
  1 13  1  0  0  0  0
  2  6  2  0  0  0  0
  3  4  1  0  0  0  0
  3  5  1  0  0  0  0
  5  6  1  0  0  0  0
  5  9  2  0  0  0  0
  6  7  1  0  0  0  0
  7  8  2  0  0  0  0
  7 10  1  0  0  0  0
  8  9  1  0  0  0  0
 10 15  2  0  0  0  0
 11 12  1  0  0  0  0
 11 13  2  0  0  0  0
 13 14  1  0  0  0  0
 15 16  1  0  0  0  0
 15 20  1  0  0  0  0
 16 17  2  0  0  0  0
 17 18  1  0  0  0  0
 18 19  1  0  0  0  0
 18 21  1  0  0  0  0
 19 20  2  0  0  0  0
 21 22  2  0  0  0  0
 21 25  1  0  0  0  0
 22 23  1  0  0  0  0
 23 24  1  0  0  0  0
 23 26  1  0  0  0  0
 24 25  2  0  0  0  0
  2 27  1  0  0  0  0
  3 28  1  0  0  0  0
  3 29  1  0  0  0  0
  4 30  1  0  0  0  0
 10 31  1  0  0  0  0
 12 32  1  0  0  0  0
 12 33  1  0  0  0  0
 12 34  1  0  0  0  0
 14 35  1  0  0  0  0
 16 36  1  0  0  0  0
 17 37  1  0  0  0  0
 18 38  1  0  0  0  0
 19 39  1  0  0  0  0
 20 40  1  0  0  0  0
 22 41  1  0  0  0  0
 25 42  1  0  0  0  0
 26 43  1  0  0  0  0
 26 44  1  0  0  0  0
 26 45  1  0  0  0  0
M  END
> <Name>
19

> <IC50[uM]>
0.015

$$$$
19
  -OEChem-05192314333D
 Structure written by MMmdl.
 45 48  0     1  0  0  0  0  0999 V2000
   -6.3863   12.3686  -12.0106 C   0  0  3  0  0  0  0  0  0  0  0  0
   -6.5303   11.8179  -10.7351 C   0  0  0  0  0  0  0  0  0  0  0  0
   -7.7274   10.5747  -13.0322 C   0  0  0  0  0  0  0  0  0  0  0  0
   -6.9939   11.7717  -13.1290 C   0  0  0  0  0  0  0  0  0  0  0  0
   -7.8233   10.0108  -11.7572 C   0  0  0  0  0  0  0  0  0  0  0  0
   -7.2504   10.6246  -10.6026 C   0  0  0  0  0  0  0  0  0  0  0  0
   -7.6148    9.7488   -9.5126 C   0  0  0  0  0  0  0  0  0  0  0  0
   -8.2772    8.7301   -9.9866 N   0  0  0  0  0  0  0  0  0  0  0  0
   -8.4133    8.8585  -11.2996 N   0  0  0  0  0  0  0  0  0  0  0  0
   -7.3367    9.8906   -8.0265 C   0  0  0  0  0  0  0  0  0  0  0  0
   -4.3739   13.6178  -11.5022 N   0  0  0  0  0  0  0  0  0  0  0  0
   -3.4056   14.7196  -11.5963 C   0  0  0  0  0  0  0  0  0  0  0  0
   -5.5407   13.6198  -12.1903 C   0  0  0  0  0  0  0  0  0  0  0  0
   -5.8948   14.5296  -12.9394 O   0  0  0  0  0  0  0  0  0  0  0  0
   -5.9610   10.4852   -7.7361 C   0  0  0  0  0  0  0  0  0  0  0  0
   -4.8098    9.7648   -8.0558 C   0  0  0  0  0  0  0  0  0  0  0  0
   -3.5520   10.3132   -7.8064 C   0  0  0  0  0  0  0  0  0  0  0  0
   -3.4430   11.5871   -7.2363 C   0  0  0  0  0  0  0  0  0  0  0  0
   -4.5944   12.3027   -6.9144 C   0  0  0  0  0  0  0  0  0  0  0  0
   -5.8504   11.7539   -7.1603 C   0  0  0  0  0  0  0  0  0  0  0  0
   -2.0991   12.1752   -6.9687 C   0  0  0  0  0  0  0  0  0  0  0  0
   -1.7663   13.4191   -6.4362 C   0  0  0  0  0  0  0  0  0  0  0  0
   -0.4291   13.4776   -6.3870 N   0  0  0  0  0  0  0  0  0  0  0  0
    0.1723   12.4029   -6.8190 N   0  0  0  0  0  0  0  0  0  0  0  0
   -0.8029   11.5945   -7.2007 C   0  0  0  0  0  0  0  0  0  0  0  0
    0.3904   14.5868   -5.9117 C   0  0  0  0  0  0  0  0  0  0  0  0
   -7.2799   12.9895  -11.8495 H   0  0  0  0  0  0  0  0  0  0  0  0
   -6.0966   12.3009   -9.8720 H   0  0  0  0  0  0  0  0  0  0  0  0
   -8.1900   10.1177  -13.8945 H   0  0  0  0  0  0  0  0  0  0  0  0
   -6.8945   12.2471  -14.0936 H   0  0  0  0  0  0  0  0  0  0  0  0
   -8.0374    9.6016   -7.2571 H   0  0  0  0  0  0  0  0  0  0  0  0
   -2.5387   14.5023  -10.9550 H   0  0  0  0  0  0  0  0  0  0  0  0
   -3.0724   14.8267  -12.6391 H   0  0  0  0  0  0  0  0  0  0  0  0
   -3.8811   15.6547  -11.2654 H   0  0  0  0  0  0  0  0  0  0  0  0
   -5.2461   15.2234  -12.9243 H   0  0  0  0  0  0  0  0  0  0  0  0
   -4.8927    8.7823   -8.4965 H   0  0  0  0  0  0  0  0  0  0  0  0
   -2.6613    9.7546   -8.0533 H   0  0  0  0  0  0  0  0  0  0  0  0
   -4.5126   13.2851   -6.4732 H   0  0  0  0  0  0  0  0  0  0  0  0
   -6.3761   12.4521   -7.8283 H   0  0  0  0  0  0  0  0  0  0  0  0
   -6.3718   11.7094   -6.1927 H   0  0  0  0  0  0  0  0  0  0  0  0
   -2.4554   14.1894   -6.1228 H   0  0  0  0  0  0  0  0  0  0  0  0
   -0.6455   10.6177   -7.6337 H   0  0  0  0  0  0  0  0  0  0  0  0
    1.4543   14.3214   -5.9997 H   0  0  0  0  0  0  0  0  0  0  0  0
    0.1843   15.4810   -6.5183 H   0  0  0  0  0  0  0  0  0  0  0  0
    0.1504   14.7949   -4.8586 H   0  0  0  0  0  0  0  0  0  0  0  0
  1  2  1  0  0  0  0
  1  4  1  0  0  0  0
  1 13  1  0  0  0  0
  2  6  2  0  0  0  0
  3  4  2  0  0  0  0
  3  5  1  0  0  0  0
  5  6  1  0  0  0  0
  5  9  2  0  0  0  0
  6  7  1  0  0  0  0
  7  8  2  0  0  0  0
  7 10  1  0  0  0  0
  8  9  1  0  0  0  0
 10 15  2  3  0  0  0
 11 12  1  0  0  0  0
 11 13  2  0  0  0  0
 13 14  1  0  0  0  0
 15 16  1  0  0  0  0
 15 20  1  0  0  0  0
 16 17  2  0  0  0  0
 17 18  1  0  0  0  0
 18 19  2  0  0  0  0
 18 21  1  0  0  0  0
 19 20  1  0  0  0  0
 21 22  2  0  0  0  0
 21 25  1  0  0  0  0
 22 23  1  0  0  0  0
 23 24  1  0  0  0  0
 23 26  1  0  0  0  0
 24 25  2  0  0  0  0
  1 27  1  0  0  0  0
  2 28  1  0  0  0  0
  3 29  1  0  0  0  0
  4 30  1  0  0  0  0
 10 31  1  0  0  0  0
 12 32  1  0  0  0  0
 12 33  1  0  0  0  0
 12 34  1  0  0  0  0
 14 35  1  0  0  0  0
 16 36  1  0  0  0  0
 17 37  1  0  0  0  0
 19 38  1  0  0  0  0
 20 39  1  0  0  0  0
 20 40  1  0  0  0  0
 22 41  1  0  0  0  0
 25 42  1  0  0  0  0
 26 43  1  0  0  0  0
 26 44  1  0  0  0  0
 26 45  1  0  0  0  0
M  END
> <Name>
19

> <IC50[uM]>
0.015

$$$$
19
  -OEChem-05192314333D
 Structure written by MMmdl.
 45 48  0     1  0  0  0  0  0999 V2000
   -6.3863   12.3686  -12.0106 C   0  0  0  0  0  0  0  0  0  0  0  0
   -6.5303   11.8179  -10.7351 C   0  0  0  0  0  0  0  0  0  0  0  0
   -7.7274   10.5747  -13.0322 C   0  0  0  0  0  0  0  0  0  0  0  0
   -6.9939   11.7717  -13.1290 C   0  0  0  0  0  0  0  0  0  0  0  0
   -7.8233   10.0108  -11.7572 C   0  0  0  0  0  0  0  0  0  0  0  0
   -7.2504   10.6246  -10.6026 C   0  0  3  0  0  0  0  0  0  0  0  0
   -7.6148    9.7488   -9.5126 C   0  0  0  0  0  0  0  0  0  0  0  0
   -8.2772    8.7301   -9.9866 N   0  0  0  0  0  0  0  0  0  0  0  0
   -8.4133    8.8585  -11.2996 N   0  0  0  0  0  0  0  0  0  0  0  0
   -7.3367    9.8906   -8.0265 C   0  0  0  0  0  0  0  0  0  0  0  0
   -4.3739   13.6178  -11.5022 N   0  0  0  0  0  0  0  0  0  0  0  0
   -3.4056   14.7196  -11.5963 C   0  0  0  0  0  0  0  0  0  0  0  0
   -5.5407   13.6198  -12.1903 C   0  0  0  0  0  0  0  0  0  0  0  0
   -5.8948   14.5296  -12.9394 O   0  0  0  0  0  0  0  0  0  0  0  0
   -5.9610   10.4852   -7.7361 C   0  0  0  0  0  0  0  0  0  0  0  0
   -4.8098    9.7648   -8.0558 C   0  0  0  0  0  0  0  0  0  0  0  0
   -3.5520   10.3132   -7.8064 C   0  0  0  0  0  0  0  0  0  0  0  0
   -3.4430   11.5871   -7.2363 C   0  0  0  0  0  0  0  0  0  0  0  0
   -4.5944   12.3027   -6.9144 C   0  0  0  0  0  0  0  0  0  0  0  0
   -5.8504   11.7539   -7.1603 C   0  0  0  0  0  0  0  0  0  0  0  0
   -2.0991   12.1752   -6.9687 C   0  0  0  0  0  0  0  0  0  0  0  0
   -1.7663   13.4191   -6.4362 C   0  0  0  0  0  0  0  0  0  0  0  0
   -0.4291   13.4776   -6.3870 N   0  0  0  0  0  0  0  0  0  0  0  0
    0.1723   12.4029   -6.8190 N   0  0  0  0  0  0  0  0  0  0  0  0
   -0.8029   11.5945   -7.2007 C   0  0  0  0  0  0  0  0  0  0  0  0
    0.3904   14.5868   -5.9117 C   0  0  0  0  0  0  0  0  0  0  0  0
   -6.0966   12.3009   -9.8720 H   0  0  0  0  0  0  0  0  0  0  0  0
   -8.1900   10.1177  -13.8945 H   0  0  0  0  0  0  0  0  0  0  0  0
   -6.8945   12.2471  -14.0936 H   0  0  0  0  0  0  0  0  0  0  0  0
   -6.3254   10.0493  -10.7557 H   0  0  0  0  0  0  0  0  0  0  0  0
   -8.0374    9.6016   -7.2571 H   0  0  0  0  0  0  0  0  0  0  0  0
   -2.5387   14.5023  -10.9550 H   0  0  0  0  0  0  0  0  0  0  0  0
   -3.0724   14.8267  -12.6391 H   0  0  0  0  0  0  0  0  0  0  0  0
   -3.8811   15.6547  -11.2654 H   0  0  0  0  0  0  0  0  0  0  0  0
   -5.2461   15.2234  -12.9243 H   0  0  0  0  0  0  0  0  0  0  0  0
   -4.8927    8.7823   -8.4965 H   0  0  0  0  0  0  0  0  0  0  0  0
   -2.6613    9.7546   -8.0533 H   0  0  0  0  0  0  0  0  0  0  0  0
   -4.5126   13.2851   -6.4732 H   0  0  0  0  0  0  0  0  0  0  0  0
   -6.3761   12.4521   -7.8283 H   0  0  0  0  0  0  0  0  0  0  0  0
   -6.3718   11.7094   -6.1927 H   0  0  0  0  0  0  0  0  0  0  0  0
   -2.4554   14.1894   -6.1228 H   0  0  0  0  0  0  0  0  0  0  0  0
   -0.6455   10.6177   -7.6337 H   0  0  0  0  0  0  0  0  0  0  0  0
    1.4543   14.3214   -5.9997 H   0  0  0  0  0  0  0  0  0  0  0  0
    0.1843   15.4810   -6.5183 H   0  0  0  0  0  0  0  0  0  0  0  0
    0.1504   14.7949   -4.8586 H   0  0  0  0  0  0  0  0  0  0  0  0
  1  2  2  0  0  0  0
  1  4  1  0  0  0  0
  1 13  1  0  0  0  0
  2  6  1  0  0  0  0
  3  4  2  0  0  0  0
  3  5  1  0  0  0  0
  5  6  1  0  0  0  0
  5  9  2  0  0  0  0
  6  7  1  0  0  0  0
  7  8  2  0  0  0  0
  7 10  1  0  0  0  0
  8  9  1  0  0  0  0
 10 15  2  3  0  0  0
 11 12  1  0  0  0  0
 11 13  2  0  0  0  0
 13 14  1  0  0  0  0
 15 16  1  0  0  0  0
 15 20  1  0  0  0  0
 16 17  2  0  0  0  0
 17 18  1  0  0  0  0
 18 19  2  0  0  0  0
 18 21  1  0  0  0  0
 19 20  1  0  0  0  0
 21 22  2  0  0  0  0
 21 25  1  0  0  0  0
 22 23  1  0  0  0  0
 23 24  1  0  0  0  0
 23 26  1  0  0  0  0
 24 25  2  0  0  0  0
  2 27  1  0  0  0  0
  3 28  1  0  0  0  0
  4 29  1  0  0  0  0
  6 30  1  0  0  0  0
 10 31  1  0  0  0  0
 12 32  1  0  0  0  0
 12 33  1  0  0  0  0
 12 34  1  0  0  0  0
 14 35  1  0  0  0  0
 16 36  1  0  0  0  0
 17 37  1  0  0  0  0
 19 38  1  0  0  0  0
 20 39  1  0  0  0  0
 20 40  1  0  0  0  0
 22 41  1  0  0  0  0
 25 42  1  0  0  0  0
 26 43  1  0  0  0  0
 26 44  1  0  0  0  0
 26 45  1  0  0  0  0
M  END
> <Name>
19

> <IC50[uM]>
0.015

$$$$
19
  -OEChem-05192314333D
 Structure written by MMmdl.
 45 48  0     0  0  0  0  0  0999 V2000
   -6.3863   12.3686  -12.0106 C   0  0  0  0  0  0  0  0  0  0  0  0
   -6.5303   11.8179  -10.7351 C   0  0  0  0  0  0  0  0  0  0  0  0
   -7.7274   10.5747  -13.0322 C   0  0  0  0  0  0  0  0  0  0  0  0
   -6.9939   11.7717  -13.1290 C   0  0  0  0  0  0  0  0  0  0  0  0
   -7.8233   10.0108  -11.7572 C   0  0  0  0  0  0  0  0  0  0  0  0
   -7.2504   10.6246  -10.6026 C   0  0  0  0  0  0  0  0  0  0  0  0
   -7.6148    9.7488   -9.5126 C   0  0  0  0  0  0  0  0  0  0  0  0
   -8.2772    8.7301   -9.9866 N   0  0  0  0  0  0  0  0  0  0  0  0
   -8.4133    8.8585  -11.2996 N   0  0  0  0  0  0  0  0  0  0  0  0
   -7.3367    9.8906   -8.0265 C   0  0  0  0  0  0  0  0  0  0  0  0
   -4.3739   13.6178  -11.5022 N   0  0  0  0  0  0  0  0  0  0  0  0
   -3.4056   14.7196  -11.5963 C   0  0  0  0  0  0  0  0  0  0  0  0
   -5.5407   13.6198  -12.1903 C   0  0  0  0  0  0  0  0  0  0  0  0
   -5.8948   14.5296  -12.9394 O   0  0  0  0  0  0  0  0  0  0  0  0
   -5.9610   10.4852   -7.7361 C   0  0  0  0  0  0  0  0  0  0  0  0
   -4.8098    9.7648   -8.0558 C   0  0  0  0  0  0  0  0  0  0  0  0
   -3.5520   10.3132   -7.8064 C   0  0  0  0  0  0  0  0  0  0  0  0
   -3.4430   11.5871   -7.2363 C   0  0  0  0  0  0  0  0  0  0  0  0
   -4.5944   12.3027   -6.9144 C   0  0  0  0  0  0  0  0  0  0  0  0
   -5.8504   11.7539   -7.1603 C   0  0  0  0  0  0  0  0  0  0  0  0
   -2.0991   12.1752   -6.9687 C   0  0  0  0  0  0  0  0  0  0  0  0
   -1.7663   13.4191   -6.4362 C   0  0  0  0  0  0  0  0  0  0  0  0
   -0.4291   13.4776   -6.3870 N   0  0  0  0  0  0  0  0  0  0  0  0
    0.1723   12.4029   -6.8190 N   0  0  0  0  0  0  0  0  0  0  0  0
   -0.8029   11.5945   -7.2007 C   0  0  0  0  0  0  0  0  0  0  0  0
    0.3904   14.5868   -5.9117 C   0  0  0  0  0  0  0  0  0  0  0  0
   -6.0966   12.3009   -9.8720 H   0  0  0  0  0  0  0  0  0  0  0  0
   -8.7487   10.7774  -13.3871 H   0  0  0  0  0  0  0  0  0  0  0  0
   -7.2503    9.8346  -13.6914 H   0  0  0  0  0  0  0  0  0  0  0  0
   -6.8945   12.2471  -14.0936 H   0  0  0  0  0  0  0  0  0  0  0  0
   -8.0374    9.6016   -7.2571 H   0  0  0  0  0  0  0  0  0  0  0  0
   -2.5387   14.5023  -10.9550 H   0  0  0  0  0  0  0  0  0  0  0  0
   -3.0724   14.8267  -12.6391 H   0  0  0  0  0  0  0  0  0  0  0  0
   -3.8811   15.6547  -11.2654 H   0  0  0  0  0  0  0  0  0  0  0  0
   -5.2461   15.2234  -12.9243 H   0  0  0  0  0  0  0  0  0  0  0  0
   -4.8927    8.7823   -8.4965 H   0  0  0  0  0  0  0  0  0  0  0  0
   -2.6613    9.7546   -8.0533 H   0  0  0  0  0  0  0  0  0  0  0  0
   -4.5126   13.2851   -6.4732 H   0  0  0  0  0  0  0  0  0  0  0  0
   -6.3761   12.4521   -7.8283 H   0  0  0  0  0  0  0  0  0  0  0  0
   -6.3718   11.7094   -6.1927 H   0  0  0  0  0  0  0  0  0  0  0  0
   -2.4554   14.1894   -6.1228 H   0  0  0  0  0  0  0  0  0  0  0  0
   -0.6455   10.6177   -7.6337 H   0  0  0  0  0  0  0  0  0  0  0  0
    1.4543   14.3214   -5.9997 H   0  0  0  0  0  0  0  0  0  0  0  0
    0.1843   15.4810   -6.5183 H   0  0  0  0  0  0  0  0  0  0  0  0
    0.1504   14.7949   -4.8586 H   0  0  0  0  0  0  0  0  0  0  0  0
  1  2  1  0  0  0  0
  1  4  2  0  0  0  0
  1 13  1  0  0  0  0
  2  6  2  0  0  0  0
  3  4  1  0  0  0  0
  3  5  1  0  0  0  0
  5  6  1  0  0  0  0
  5  9  2  0  0  0  0
  6  7  1  0  0  0  0
  7  8  2  0  0  0  0
  7 10  1  0  0  0  0
  8  9  1  0  0  0  0
 10 15  2  3  0  0  0
 11 12  1  0  0  0  0
 11 13  2  0  0  0  0
 13 14  1  0  0  0  0
 15 16  1  0  0  0  0
 15 20  1  0  0  0  0
 16 17  2  0  0  0  0
 17 18  1  0  0  0  0
 18 19  2  0  0  0  0
 18 21  1  0  0  0  0
 19 20  1  0  0  0  0
 21 22  2  0  0  0  0
 21 25  1  0  0  0  0
 22 23  1  0  0  0  0
 23 24  1  0  0  0  0
 23 26  1  0  0  0  0
 24 25  2  0  0  0  0
  2 27  1  0  0  0  0
  3 28  1  0  0  0  0
  3 29  1  0  0  0  0
  4 30  1  0  0  0  0
 10 31  1  0  0  0  0
 12 32  1  0  0  0  0
 12 33  1  0  0  0  0
 12 34  1  0  0  0  0
 14 35  1  0  0  0  0
 16 36  1  0  0  0  0
 17 37  1  0  0  0  0
 19 38  1  0  0  0  0
 20 39  1  0  0  0  0
 20 40  1  0  0  0  0
 22 41  1  0  0  0  0
 25 42  1  0  0  0  0
 26 43  1  0  0  0  0
 26 44  1  0  0  0  0
 26 45  1  0  0  0  0
M  END
> <Name>
19

> <IC50[uM]>
0.015

$$$$
19
  -OEChem-05192314333D
 Structure written by MMmdl.
 45 48  0     1  0  0  0  0  0999 V2000
   -6.3863   12.3686  -12.0106 C   0  0  0  0  0  0  0  0  0  0  0  0
   -6.5303   11.8179  -10.7351 C   0  0  0  0  0  0  0  0  0  0  0  0
   -7.7274   10.5747  -13.0322 C   0  0  0  0  0  0  0  0  0  0  0  0
   -6.9939   11.7717  -13.1290 C   0  0  0  0  0  0  0  0  0  0  0  0
   -7.8233   10.0108  -11.7572 C   0  0  3  0  0  0  0  0  0  0  0  0
   -7.2504   10.6246  -10.6026 C   0  0  0  0  0  0  0  0  0  0  0  0
   -7.6148    9.7488   -9.5126 C   0  0  0  0  0  0  0  0  0  0  0  0
   -8.2772    8.7301   -9.9866 N   0  0  0  0  0  0  0  0  0  0  0  0
   -8.4133    8.8585  -11.2996 N   0  0  0  0  0  0  0  0  0  0  0  0
   -7.3367    9.8906   -8.0265 C   0  0  0  0  0  0  0  0  0  0  0  0
   -4.3739   13.6178  -11.5022 N   0  0  0  0  0  0  0  0  0  0  0  0
   -3.4056   14.7196  -11.5963 C   0  0  0  0  0  0  0  0  0  0  0  0
   -5.5407   13.6198  -12.1903 C   0  0  0  0  0  0  0  0  0  0  0  0
   -5.8948   14.5296  -12.9394 O   0  0  0  0  0  0  0  0  0  0  0  0
   -5.9610   10.4852   -7.7361 C   0  0  0  0  0  0  0  0  0  0  0  0
   -4.8098    9.7648   -8.0558 C   0  0  0  0  0  0  0  0  0  0  0  0
   -3.5520   10.3132   -7.8064 C   0  0  0  0  0  0  0  0  0  0  0  0
   -3.4430   11.5871   -7.2363 C   0  0  0  0  0  0  0  0  0  0  0  0
   -4.5944   12.3027   -6.9144 C   0  0  0  0  0  0  0  0  0  0  0  0
   -5.8504   11.7539   -7.1603 C   0  0  0  0  0  0  0  0  0  0  0  0
   -2.0991   12.1752   -6.9687 C   0  0  0  0  0  0  0  0  0  0  0  0
   -1.7663   13.4191   -6.4362 C   0  0  0  0  0  0  0  0  0  0  0  0
   -0.4291   13.4776   -6.3870 N   0  0  0  0  0  0  0  0  0  0  0  0
    0.1723   12.4029   -6.8190 N   0  0  0  0  0  0  0  0  0  0  0  0
   -0.8029   11.5945   -7.2007 C   0  0  0  0  0  0  0  0  0  0  0  0
    0.3904   14.5868   -5.9117 C   0  0  0  0  0  0  0  0  0  0  0  0
   -6.0966   12.3009   -9.8720 H   0  0  0  0  0  0  0  0  0  0  0  0
   -8.1900   10.1177  -13.8945 H   0  0  0  0  0  0  0  0  0  0  0  0
   -6.8945   12.2471  -14.0936 H   0  0  0  0  0  0  0  0  0  0  0  0
   -8.7607   10.5598  -11.5844 H   0  0  0  0  0  0  0  0  0  0  0  0
   -8.0374    9.6016   -7.2571 H   0  0  0  0  0  0  0  0  0  0  0  0
   -4.1641   12.8399  -10.9098 H   0  0  0  0  0  0  0  0  0  0  0  0
   -2.5387   14.5023  -10.9550 H   0  0  0  0  0  0  0  0  0  0  0  0
   -3.0724   14.8267  -12.6391 H   0  0  0  0  0  0  0  0  0  0  0  0
   -3.8811   15.6547  -11.2654 H   0  0  0  0  0  0  0  0  0  0  0  0
   -4.8927    8.7823   -8.4965 H   0  0  0  0  0  0  0  0  0  0  0  0
   -2.6613    9.7546   -8.0533 H   0  0  0  0  0  0  0  0  0  0  0  0
   -3.4418   12.0376   -8.2398 H   0  0  0  0  0  0  0  0  0  0  0  0
   -4.5126   13.2851   -6.4732 H   0  0  0  0  0  0  0  0  0  0  0  0
   -6.7407   12.3097   -6.9056 H   0  0  0  0  0  0  0  0  0  0  0  0
   -2.4554   14.1894   -6.1228 H   0  0  0  0  0  0  0  0  0  0  0  0
   -0.6455   10.6177   -7.6337 H   0  0  0  0  0  0  0  0  0  0  0  0
    1.4543   14.3214   -5.9997 H   0  0  0  0  0  0  0  0  0  0  0  0
    0.1843   15.4810   -6.5183 H   0  0  0  0  0  0  0  0  0  0  0  0
    0.1504   14.7949   -4.8586 H   0  0  0  0  0  0  0  0  0  0  0  0
  1  2  2  0  0  0  0
  1  4  1  0  0  0  0
  1 13  1  0  0  0  0
  2  6  1  0  0  0  0
  3  4  2  0  0  0  0
  3  5  1  0  0  0  0
  5  6  1  0  0  0  0
  5  9  1  0  0  0  0
  6  7  2  0  0  0  0
  7  8  1  0  0  0  0
  7 10  1  0  0  0  0
  8  9  2  0  0  0  0
 10 15  2  0  0  0  0
 11 12  1  0  0  0  0
 11 13  1  0  0  0  0
 13 14  2  0  0  0  0
 15 16  1  0  0  0  0
 15 20  1  0  0  0  0
 16 17  2  0  0  0  0
 17 18  1  0  0  0  0
 18 19  1  0  0  0  0
 18 21  1  0  0  0  0
 19 20  2  0  0  0  0
 21 22  2  0  0  0  0
 21 25  1  0  0  0  0
 22 23  1  0  0  0  0
 23 24  1  0  0  0  0
 23 26  1  0  0  0  0
 24 25  2  0  0  0  0
  2 27  1  0  0  0  0
  3 28  1  0  0  0  0
  4 29  1  0  0  0  0
  5 30  1  0  0  0  0
 10 31  1  0  0  0  0
 11 32  1  0  0  0  0
 12 33  1  0  0  0  0
 12 34  1  0  0  0  0
 12 35  1  0  0  0  0
 16 36  1  0  0  0  0
 17 37  1  0  0  0  0
 18 38  1  0  0  0  0
 19 39  1  0  0  0  0
 20 40  1  0  0  0  0
 22 41  1  0  0  0  0
 25 42  1  0  0  0  0
 26 43  1  0  0  0  0
 26 44  1  0  0  0  0
 26 45  1  0  0  0  0
M  END
> <Name>
19

> <IC50[uM]>
0.015

$$$$
19
  -OEChem-05192314333D
 Structure written by MMmdl.
 45 48  0     0  0  0  0  0  0999 V2000
   -6.3863   12.3686  -12.0106 C   0  0  0  0  0  0  0  0  0  0  0  0
   -6.5303   11.8179  -10.7351 C   0  0  0  0  0  0  0  0  0  0  0  0
   -7.7274   10.5747  -13.0322 C   0  0  0  0  0  0  0  0  0  0  0  0
   -6.9939   11.7717  -13.1290 C   0  0  0  0  0  0  0  0  0  0  0  0
   -7.8233   10.0108  -11.7572 C   0  0  0  0  0  0  0  0  0  0  0  0
   -7.2504   10.6246  -10.6026 C   0  0  0  0  0  0  0  0  0  0  0  0
   -7.6148    9.7488   -9.5126 C   0  0  0  0  0  0  0  0  0  0  0  0
   -8.2772    8.7301   -9.9866 N   0  0  0  0  0  0  0  0  0  0  0  0
   -8.4133    8.8585  -11.2996 N   0  0  0  0  0  0  0  0  0  0  0  0
   -7.3367    9.8906   -8.0265 C   0  0  0  0  0  0  0  0  0  0  0  0
   -4.3739   13.6178  -11.5022 N   0  0  0  0  0  0  0  0  0  0  0  0
   -3.4056   14.7196  -11.5963 C   0  0  0  0  0  0  0  0  0  0  0  0
   -5.5407   13.6198  -12.1903 C   0  0  0  0  0  0  0  0  0  0  0  0
   -5.8948   14.5296  -12.9394 O   0  0  0  0  0  0  0  0  0  0  0  0
   -5.9610   10.4852   -7.7361 C   0  0  0  0  0  0  0  0  0  0  0  0
   -4.8098    9.7648   -8.0558 C   0  0  0  0  0  0  0  0  0  0  0  0
   -3.5520   10.3132   -7.8064 C   0  0  0  0  0  0  0  0  0  0  0  0
   -3.4430   11.5871   -7.2363 C   0  0  0  0  0  0  0  0  0  0  0  0
   -4.5944   12.3027   -6.9144 C   0  0  0  0  0  0  0  0  0  0  0  0
   -5.8504   11.7539   -7.1603 C   0  0  0  0  0  0  0  0  0  0  0  0
   -2.0991   12.1752   -6.9687 C   0  0  0  0  0  0  0  0  0  0  0  0
   -1.7663   13.4191   -6.4362 C   0  0  0  0  0  0  0  0  0  0  0  0
   -0.4291   13.4776   -6.3870 N   0  0  0  0  0  0  0  0  0  0  0  0
    0.1723   12.4029   -6.8190 N   0  0  0  0  0  0  0  0  0  0  0  0
   -0.8029   11.5945   -7.2007 C   0  0  0  0  0  0  0  0  0  0  0  0
    0.3904   14.5868   -5.9117 C   0  0  0  0  0  0  0  0  0  0  0  0
   -6.0966   12.3009   -9.8720 H   0  0  0  0  0  0  0  0  0  0  0  0
   -8.1900   10.1177  -13.8945 H   0  0  0  0  0  0  0  0  0  0  0  0
   -7.6841   12.5226  -13.5411 H   0  0  0  0  0  0  0  0  0  0  0  0
   -6.1868   11.5800  -13.8514 H   0  0  0  0  0  0  0  0  0  0  0  0
   -8.0374    9.6016   -7.2571 H   0  0  0  0  0  0  0  0  0  0  0  0
   -4.1641   12.8399  -10.9098 H   0  0  0  0  0  0  0  0  0  0  0  0
   -2.5387   14.5023  -10.9550 H   0  0  0  0  0  0  0  0  0  0  0  0
   -3.0724   14.8267  -12.6391 H   0  0  0  0  0  0  0  0  0  0  0  0
   -3.8811   15.6547  -11.2654 H   0  0  0  0  0  0  0  0  0  0  0  0
   -4.8927    8.7823   -8.4965 H   0  0  0  0  0  0  0  0  0  0  0  0
   -2.6613    9.7546   -8.0533 H   0  0  0  0  0  0  0  0  0  0  0  0
   -3.4418   12.0376   -8.2398 H   0  0  0  0  0  0  0  0  0  0  0  0
   -4.5126   13.2851   -6.4732 H   0  0  0  0  0  0  0  0  0  0  0  0
   -6.7407   12.3097   -6.9056 H   0  0  0  0  0  0  0  0  0  0  0  0
   -2.4554   14.1894   -6.1228 H   0  0  0  0  0  0  0  0  0  0  0  0
   -0.6455   10.6177   -7.6337 H   0  0  0  0  0  0  0  0  0  0  0  0
    1.4543   14.3214   -5.9997 H   0  0  0  0  0  0  0  0  0  0  0  0
    0.1843   15.4810   -6.5183 H   0  0  0  0  0  0  0  0  0  0  0  0
    0.1504   14.7949   -4.8586 H   0  0  0  0  0  0  0  0  0  0  0  0
  1  2  2  0  0  0  0
  1  4  1  0  0  0  0
  1 13  1  0  0  0  0
  2  6  1  0  0  0  0
  3  4  1  0  0  0  0
  3  5  2  0  0  0  0
  5  6  1  0  0  0  0
  5  9  1  0  0  0  0
  6  7  2  0  0  0  0
  7  8  1  0  0  0  0
  7 10  1  0  0  0  0
  8  9  2  0  0  0  0
 10 15  2  0  0  0  0
 11 12  1  0  0  0  0
 11 13  1  0  0  0  0
 13 14  2  0  0  0  0
 15 16  1  0  0  0  0
 15 20  1  0  0  0  0
 16 17  2  0  0  0  0
 17 18  1  0  0  0  0
 18 19  1  0  0  0  0
 18 21  1  0  0  0  0
 19 20  2  0  0  0  0
 21 22  2  0  0  0  0
 21 25  1  0  0  0  0
 22 23  1  0  0  0  0
 23 24  1  0  0  0  0
 23 26  1  0  0  0  0
 24 25  2  0  0  0  0
  2 27  1  0  0  0  0
  3 28  1  0  0  0  0
  4 29  1  0  0  0  0
  4 30  1  0  0  0  0
 10 31  1  0  0  0  0
 11 32  1  0  0  0  0
 12 33  1  0  0  0  0
 12 34  1  0  0  0  0
 12 35  1  0  0  0  0
 16 36  1  0  0  0  0
 17 37  1  0  0  0  0
 18 38  1  0  0  0  0
 19 39  1  0  0  0  0
 20 40  1  0  0  0  0
 22 41  1  0  0  0  0
 25 42  1  0  0  0  0
 26 43  1  0  0  0  0
 26 44  1  0  0  0  0
 26 45  1  0  0  0  0
M  END
> <Name>
19

> <IC50[uM]>
0.015

$$$$
19
  -OEChem-05192314333D
 Structure written by MMmdl.
 45 48  0     1  0  0  0  0  0999 V2000
   -6.3863   12.3686  -12.0106 C   0  0  0  0  0  0  0  0  0  0  0  0
   -6.5303   11.8179  -10.7351 C   0  0  0  0  0  0  0  0  0  0  0  0
   -7.7274   10.5747  -13.0322 C   0  0  0  0  0  0  0  0  0  0  0  0
   -6.9939   11.7717  -13.1290 C   0  0  0  0  0  0  0  0  0  0  0  0
   -7.8233   10.0108  -11.7572 C   0  0  3  0  0  0  0  0  0  0  0  0
   -7.2504   10.6246  -10.6026 C   0  0  0  0  0  0  0  0  0  0  0  0
   -7.6148    9.7488   -9.5126 C   0  0  0  0  0  0  0  0  0  0  0  0
   -8.2772    8.7301   -9.9866 N   0  0  0  0  0  0  0  0  0  0  0  0
   -8.4133    8.8585  -11.2996 N   0  0  0  0  0  0  0  0  0  0  0  0
   -7.3367    9.8906   -8.0265 C   0  0  0  0  0  0  0  0  0  0  0  0
   -4.3739   13.6178  -11.5022 N   0  0  0  0  0  0  0  0  0  0  0  0
   -3.4056   14.7196  -11.5963 C   0  0  0  0  0  0  0  0  0  0  0  0
   -5.5407   13.6198  -12.1903 C   0  0  0  0  0  0  0  0  0  0  0  0
   -5.8948   14.5296  -12.9394 O   0  0  0  0  0  0  0  0  0  0  0  0
   -5.9610   10.4852   -7.7361 C   0  0  0  0  0  0  0  0  0  0  0  0
   -4.8098    9.7648   -8.0558 C   0  0  0  0  0  0  0  0  0  0  0  0
   -3.5520   10.3132   -7.8064 C   0  0  0  0  0  0  0  0  0  0  0  0
   -3.4430   11.5871   -7.2363 C   0  0  0  0  0  0  0  0  0  0  0  0
   -4.5944   12.3027   -6.9144 C   0  0  0  0  0  0  0  0  0  0  0  0
   -5.8504   11.7539   -7.1603 C   0  0  0  0  0  0  0  0  0  0  0  0
   -2.0991   12.1752   -6.9687 C   0  0  0  0  0  0  0  0  0  0  0  0
   -1.7663   13.4191   -6.4362 C   0  0  0  0  0  0  0  0  0  0  0  0
   -0.4291   13.4776   -6.3870 N   0  0  0  0  0  0  0  0  0  0  0  0
    0.1723   12.4029   -6.8190 N   0  0  0  0  0  0  0  0  0  0  0  0
   -0.8029   11.5945   -7.2007 C   0  0  0  0  0  0  0  0  0  0  0  0
    0.3904   14.5868   -5.9117 C   0  0  0  0  0  0  0  0  0  0  0  0
   -6.0966   12.3009   -9.8720 H   0  0  0  0  0  0  0  0  0  0  0  0
   -8.1900   10.1177  -13.8945 H   0  0  0  0  0  0  0  0  0  0  0  0
   -6.8945   12.2471  -14.0936 H   0  0  0  0  0  0  0  0  0  0  0  0
   -8.7607   10.5598  -11.5844 H   0  0  0  0  0  0  0  0  0  0  0  0
   -8.0374    9.6016   -7.2571 H   0  0  0  0  0  0  0  0  0  0  0  0
   -4.1641   12.8399  -10.9098 H   0  0  0  0  0  0  0  0  0  0  0  0
   -2.5387   14.5023  -10.9550 H   0  0  0  0  0  0  0  0  0  0  0  0
   -3.0724   14.8267  -12.6391 H   0  0  0  0  0  0  0  0  0  0  0  0
   -3.8811   15.6547  -11.2654 H   0  0  0  0  0  0  0  0  0  0  0  0
   -4.8927    8.7823   -8.4965 H   0  0  0  0  0  0  0  0  0  0  0  0
   -2.6613    9.7546   -8.0533 H   0  0  0  0  0  0  0  0  0  0  0  0
   -4.5126   13.2851   -6.4732 H   0  0  0  0  0  0  0  0  0  0  0  0
   -6.3761   12.4521   -7.8283 H   0  0  0  0  0  0  0  0  0  0  0  0
   -6.3718   11.7094   -6.1927 H   0  0  0  0  0  0  0  0  0  0  0  0
   -2.4554   14.1894   -6.1228 H   0  0  0  0  0  0  0  0  0  0  0  0
   -0.6455   10.6177   -7.6337 H   0  0  0  0  0  0  0  0  0  0  0  0
    1.4543   14.3214   -5.9997 H   0  0  0  0  0  0  0  0  0  0  0  0
    0.1843   15.4810   -6.5183 H   0  0  0  0  0  0  0  0  0  0  0  0
    0.1504   14.7949   -4.8586 H   0  0  0  0  0  0  0  0  0  0  0  0
  1  2  2  0  0  0  0
  1  4  1  0  0  0  0
  1 13  1  0  0  0  0
  2  6  1  0  0  0  0
  3  4  2  0  0  0  0
  3  5  1  0  0  0  0
  5  6  1  0  0  0  0
  5  9  1  0  0  0  0
  6  7  2  0  0  0  0
  7  8  1  0  0  0  0
  7 10  1  0  0  0  0
  8  9  2  0  0  0  0
 10 15  2  3  0  0  0
 11 12  1  0  0  0  0
 11 13  1  0  0  0  0
 13 14  2  0  0  0  0
 15 16  1  0  0  0  0
 15 20  1  0  0  0  0
 16 17  2  0  0  0  0
 17 18  1  0  0  0  0
 18 19  2  0  0  0  0
 18 21  1  0  0  0  0
 19 20  1  0  0  0  0
 21 22  2  0  0  0  0
 21 25  1  0  0  0  0
 22 23  1  0  0  0  0
 23 24  1  0  0  0  0
 23 26  1  0  0  0  0
 24 25  2  0  0  0  0
  2 27  1  0  0  0  0
  3 28  1  0  0  0  0
  4 29  1  0  0  0  0
  5 30  1  0  0  0  0
 10 31  1  0  0  0  0
 11 32  1  0  0  0  0
 12 33  1  0  0  0  0
 12 34  1  0  0  0  0
 12 35  1  0  0  0  0
 16 36  1  0  0  0  0
 17 37  1  0  0  0  0
 19 38  1  0  0  0  0
 20 39  1  0  0  0  0
 20 40  1  0  0  0  0
 22 41  1  0  0  0  0
 25 42  1  0  0  0  0
 26 43  1  0  0  0  0
 26 44  1  0  0  0  0
 26 45  1  0  0  0  0
M  END
> <Name>
19

> <IC50[uM]>
0.015

$$$$
19
  -OEChem-05192314333D
 Structure written by MMmdl.
 45 48  0     0  0  0  0  0  0999 V2000
   -6.3863   12.3686  -12.0106 C   0  0  0  0  0  0  0  0  0  0  0  0
   -6.5303   11.8179  -10.7351 C   0  0  0  0  0  0  0  0  0  0  0  0
   -7.7274   10.5747  -13.0322 C   0  0  0  0  0  0  0  0  0  0  0  0
   -6.9939   11.7717  -13.1290 C   0  0  0  0  0  0  0  0  0  0  0  0
   -7.8233   10.0108  -11.7572 C   0  0  0  0  0  0  0  0  0  0  0  0
   -7.2504   10.6246  -10.6026 C   0  0  0  0  0  0  0  0  0  0  0  0
   -7.6148    9.7488   -9.5126 C   0  0  0  0  0  0  0  0  0  0  0  0
   -8.2772    8.7301   -9.9866 N   0  0  0  0  0  0  0  0  0  0  0  0
   -8.4133    8.8585  -11.2996 N   0  0  0  0  0  0  0  0  0  0  0  0
   -7.3367    9.8906   -8.0265 C   0  0  0  0  0  0  0  0  0  0  0  0
   -4.3739   13.6178  -11.5022 N   0  0  0  0  0  0  0  0  0  0  0  0
   -3.4056   14.7196  -11.5963 C   0  0  0  0  0  0  0  0  0  0  0  0
   -5.5407   13.6198  -12.1903 C   0  0  0  0  0  0  0  0  0  0  0  0
   -5.8948   14.5296  -12.9394 O   0  0  0  0  0  0  0  0  0  0  0  0
   -5.9610   10.4852   -7.7361 C   0  0  0  0  0  0  0  0  0  0  0  0
   -4.8098    9.7648   -8.0558 C   0  0  0  0  0  0  0  0  0  0  0  0
   -3.5520   10.3132   -7.8064 C   0  0  0  0  0  0  0  0  0  0  0  0
   -3.4430   11.5871   -7.2363 C   0  0  0  0  0  0  0  0  0  0  0  0
   -4.5944   12.3027   -6.9144 C   0  0  0  0  0  0  0  0  0  0  0  0
   -5.8504   11.7539   -7.1603 C   0  0  0  0  0  0  0  0  0  0  0  0
   -2.0991   12.1752   -6.9687 C   0  0  0  0  0  0  0  0  0  0  0  0
   -1.7663   13.4191   -6.4362 C   0  0  0  0  0  0  0  0  0  0  0  0
   -0.4291   13.4776   -6.3870 N   0  0  0  0  0  0  0  0  0  0  0  0
    0.1723   12.4029   -6.8190 N   0  0  0  0  0  0  0  0  0  0  0  0
   -0.8029   11.5945   -7.2007 C   0  0  0  0  0  0  0  0  0  0  0  0
    0.3904   14.5868   -5.9117 C   0  0  0  0  0  0  0  0  0  0  0  0
   -6.0966   12.3009   -9.8720 H   0  0  0  0  0  0  0  0  0  0  0  0
   -8.1900   10.1177  -13.8945 H   0  0  0  0  0  0  0  0  0  0  0  0
   -7.6841   12.5226  -13.5411 H   0  0  0  0  0  0  0  0  0  0  0  0
   -6.1868   11.5800  -13.8514 H   0  0  0  0  0  0  0  0  0  0  0  0
   -8.0374    9.6016   -7.2571 H   0  0  0  0  0  0  0  0  0  0  0  0
   -4.1641   12.8399  -10.9098 H   0  0  0  0  0  0  0  0  0  0  0  0
   -2.5387   14.5023  -10.9550 H   0  0  0  0  0  0  0  0  0  0  0  0
   -3.0724   14.8267  -12.6391 H   0  0  0  0  0  0  0  0  0  0  0  0
   -3.8811   15.6547  -11.2654 H   0  0  0  0  0  0  0  0  0  0  0  0
   -4.8927    8.7823   -8.4965 H   0  0  0  0  0  0  0  0  0  0  0  0
   -2.6613    9.7546   -8.0533 H   0  0  0  0  0  0  0  0  0  0  0  0
   -4.5126   13.2851   -6.4732 H   0  0  0  0  0  0  0  0  0  0  0  0
   -6.3761   12.4521   -7.8283 H   0  0  0  0  0  0  0  0  0  0  0  0
   -6.3718   11.7094   -6.1927 H   0  0  0  0  0  0  0  0  0  0  0  0
   -2.4554   14.1894   -6.1228 H   0  0  0  0  0  0  0  0  0  0  0  0
   -0.6455   10.6177   -7.6337 H   0  0  0  0  0  0  0  0  0  0  0  0
    1.4543   14.3214   -5.9997 H   0  0  0  0  0  0  0  0  0  0  0  0
    0.1843   15.4810   -6.5183 H   0  0  0  0  0  0  0  0  0  0  0  0
    0.1504   14.7949   -4.8586 H   0  0  0  0  0  0  0  0  0  0  0  0
  1  2  2  0  0  0  0
  1  4  1  0  0  0  0
  1 13  1  0  0  0  0
  2  6  1  0  0  0  0
  3  4  1  0  0  0  0
  3  5  2  0  0  0  0
  5  6  1  0  0  0  0
  5  9  1  0  0  0  0
  6  7  2  0  0  0  0
  7  8  1  0  0  0  0
  7 10  1  0  0  0  0
  8  9  2  0  0  0  0
 10 15  2  3  0  0  0
 11 12  1  0  0  0  0
 11 13  1  0  0  0  0
 13 14  2  0  0  0  0
 15 16  1  0  0  0  0
 15 20  1  0  0  0  0
 16 17  2  0  0  0  0
 17 18  1  0  0  0  0
 18 19  2  0  0  0  0
 18 21  1  0  0  0  0
 19 20  1  0  0  0  0
 21 22  2  0  0  0  0
 21 25  1  0  0  0  0
 22 23  1  0  0  0  0
 23 24  1  0  0  0  0
 23 26  1  0  0  0  0
 24 25  2  0  0  0  0
  2 27  1  0  0  0  0
  3 28  1  0  0  0  0
  4 29  1  0  0  0  0
  4 30  1  0  0  0  0
 10 31  1  0  0  0  0
 11 32  1  0  0  0  0
 12 33  1  0  0  0  0
 12 34  1  0  0  0  0
 12 35  1  0  0  0  0
 16 36  1  0  0  0  0
 17 37  1  0  0  0  0
 19 38  1  0  0  0  0
 20 39  1  0  0  0  0
 20 40  1  0  0  0  0
 22 41  1  0  0  0  0
 25 42  1  0  0  0  0
 26 43  1  0  0  0  0
 26 44  1  0  0  0  0
 26 45  1  0  0  0  0
M  END
> <Name>
19

> <IC50[uM]>
0.015

$$$$
19
  -OEChem-05192314333D
 Structure written by MMmdl.
 45 48  0     0  0  0  0  0  0999 V2000
   -6.3863   12.3686  -12.0106 C   0  0  0  0  0  0  0  0  0  0  0  0
   -6.5303   11.8179  -10.7351 C   0  0  0  0  0  0  0  0  0  0  0  0
   -7.7274   10.5747  -13.0322 C   0  0  0  0  0  0  0  0  0  0  0  0
   -6.9939   11.7717  -13.1290 C   0  0  0  0  0  0  0  0  0  0  0  0
   -7.8233   10.0108  -11.7572 C   0  0  0  0  0  0  0  0  0  0  0  0
   -7.2504   10.6246  -10.6026 C   0  0  0  0  0  0  0  0  0  0  0  0
   -7.6148    9.7488   -9.5126 C   0  0  0  0  0  0  0  0  0  0  0  0
   -8.2772    8.7301   -9.9866 N   0  0  0  0  0  0  0  0  0  0  0  0
   -8.4133    8.8585  -11.2996 N   0  0  0  0  0  0  0  0  0  0  0  0
   -7.3367    9.8906   -8.0265 C   0  0  0  0  0  0  0  0  0  0  0  0
   -4.3739   13.6178  -11.5022 N   0  0  0  0  0  0  0  0  0  0  0  0
   -3.4056   14.7196  -11.5963 C   0  0  0  0  0  0  0  0  0  0  0  0
   -5.5407   13.6198  -12.1903 C   0  0  0  0  0  0  0  0  0  0  0  0
   -5.8948   14.5296  -12.9394 O   0  0  0  0  0  0  0  0  0  0  0  0
   -5.9610   10.4852   -7.7361 C   0  0  0  0  0  0  0  0  0  0  0  0
   -4.8098    9.7648   -8.0558 C   0  0  0  0  0  0  0  0  0  0  0  0
   -3.5520   10.3132   -7.8064 C   0  0  0  0  0  0  0  0  0  0  0  0
   -3.4430   11.5871   -7.2363 C   0  0  0  0  0  0  0  0  0  0  0  0
   -4.5944   12.3027   -6.9144 C   0  0  0  0  0  0  0  0  0  0  0  0
   -5.8504   11.7539   -7.1603 C   0  0  0  0  0  0  0  0  0  0  0  0
   -2.0991   12.1752   -6.9687 C   0  0  0  0  0  0  0  0  0  0  0  0
   -1.7663   13.4191   -6.4362 C   0  0  0  0  0  0  0  0  0  0  0  0
   -0.4291   13.4776   -6.3870 N   0  0  0  0  0  0  0  0  0  0  0  0
    0.1723   12.4029   -6.8190 N   0  0  0  0  0  0  0  0  0  0  0  0
   -0.8029   11.5945   -7.2007 C   0  0  0  0  0  0  0  0  0  0  0  0
    0.3904   14.5868   -5.9117 C   0  0  0  0  0  0  0  0  0  0  0  0
   -5.5187   11.6324  -10.3449 H   0  0  0  0  0  0  0  0  0  0  0  0
   -7.0319   12.5715  -10.1102 H   0  0  0  0  0  0  0  0  0  0  0  0
   -8.1900   10.1177  -13.8945 H   0  0  0  0  0  0  0  0  0  0  0  0
   -6.8945   12.2471  -14.0936 H   0  0  0  0  0  0  0  0  0  0  0  0
   -8.0374    9.6016   -7.2571 H   0  0  0  0  0  0  0  0  0  0  0  0
   -4.1641   12.8399  -10.9098 H   0  0  0  0  0  0  0  0  0  0  0  0
   -2.5387   14.5023  -10.9550 H   0  0  0  0  0  0  0  0  0  0  0  0
   -3.0724   14.8267  -12.6391 H   0  0  0  0  0  0  0  0  0  0  0  0
   -3.8811   15.6547  -11.2654 H   0  0  0  0  0  0  0  0  0  0  0  0
   -4.8927    8.7823   -8.4965 H   0  0  0  0  0  0  0  0  0  0  0  0
   -2.6613    9.7546   -8.0533 H   0  0  0  0  0  0  0  0  0  0  0  0
   -3.4418   12.0376   -8.2398 H   0  0  0  0  0  0  0  0  0  0  0  0
   -4.5126   13.2851   -6.4732 H   0  0  0  0  0  0  0  0  0  0  0  0
   -6.7407   12.3097   -6.9056 H   0  0  0  0  0  0  0  0  0  0  0  0
   -2.4554   14.1894   -6.1228 H   0  0  0  0  0  0  0  0  0  0  0  0
   -0.6455   10.6177   -7.6337 H   0  0  0  0  0  0  0  0  0  0  0  0
    1.4543   14.3214   -5.9997 H   0  0  0  0  0  0  0  0  0  0  0  0
    0.1843   15.4810   -6.5183 H   0  0  0  0  0  0  0  0  0  0  0  0
    0.1504   14.7949   -4.8586 H   0  0  0  0  0  0  0  0  0  0  0  0
  1  2  1  0  0  0  0
  1  4  2  0  0  0  0
  1 13  1  0  0  0  0
  2  6  1  0  0  0  0
  3  4  1  0  0  0  0
  3  5  2  0  0  0  0
  5  6  1  0  0  0  0
  5  9  1  0  0  0  0
  6  7  2  0  0  0  0
  7  8  1  0  0  0  0
  7 10  1  0  0  0  0
  8  9  2  0  0  0  0
 10 15  2  0  0  0  0
 11 12  1  0  0  0  0
 11 13  1  0  0  0  0
 13 14  2  0  0  0  0
 15 16  1  0  0  0  0
 15 20  1  0  0  0  0
 16 17  2  0  0  0  0
 17 18  1  0  0  0  0
 18 19  1  0  0  0  0
 18 21  1  0  0  0  0
 19 20  2  0  0  0  0
 21 22  2  0  0  0  0
 21 25  1  0  0  0  0
 22 23  1  0  0  0  0
 23 24  1  0  0  0  0
 23 26  1  0  0  0  0
 24 25  2  0  0  0  0
  2 27  1  0  0  0  0
  2 28  1  0  0  0  0
  3 29  1  0  0  0  0
  4 30  1  0  0  0  0
 10 31  1  0  0  0  0
 11 32  1  0  0  0  0
 12 33  1  0  0  0  0
 12 34  1  0  0  0  0
 12 35  1  0  0  0  0
 16 36  1  0  0  0  0
 17 37  1  0  0  0  0
 18 38  1  0  0  0  0
 19 39  1  0  0  0  0
 20 40  1  0  0  0  0
 22 41  1  0  0  0  0
 25 42  1  0  0  0  0
 26 43  1  0  0  0  0
 26 44  1  0  0  0  0
 26 45  1  0  0  0  0
M  END
> <Name>
19

> <IC50[uM]>
0.015

$$$$
19
  -OEChem-05192314333D
 Structure written by MMmdl.
 45 48  0     0  0  0  0  0  0999 V2000
   -6.3863   12.3686  -12.0106 C   0  0  0  0  0  0  0  0  0  0  0  0
   -6.5303   11.8179  -10.7351 C   0  0  0  0  0  0  0  0  0  0  0  0
   -7.7274   10.5747  -13.0322 C   0  0  0  0  0  0  0  0  0  0  0  0
   -6.9939   11.7717  -13.1290 C   0  0  0  0  0  0  0  0  0  0  0  0
   -7.8233   10.0108  -11.7572 C   0  0  0  0  0  0  0  0  0  0  0  0
   -7.2504   10.6246  -10.6026 C   0  0  0  0  0  0  0  0  0  0  0  0
   -7.6148    9.7488   -9.5126 C   0  0  0  0  0  0  0  0  0  0  0  0
   -8.2772    8.7301   -9.9866 N   0  0  0  0  0  0  0  0  0  0  0  0
   -8.4133    8.8585  -11.2996 N   0  0  0  0  0  0  0  0  0  0  0  0
   -7.3367    9.8906   -8.0265 C   0  0  0  0  0  0  0  0  0  0  0  0
   -4.3739   13.6178  -11.5022 N   0  0  0  0  0  0  0  0  0  0  0  0
   -3.4056   14.7196  -11.5963 C   0  0  0  0  0  0  0  0  0  0  0  0
   -5.5407   13.6198  -12.1903 C   0  0  0  0  0  0  0  0  0  0  0  0
   -5.8948   14.5296  -12.9394 O   0  0  0  0  0  0  0  0  0  0  0  0
   -5.9610   10.4852   -7.7361 C   0  0  0  0  0  0  0  0  0  0  0  0
   -4.8098    9.7648   -8.0558 C   0  0  0  0  0  0  0  0  0  0  0  0
   -3.5520   10.3132   -7.8064 C   0  0  0  0  0  0  0  0  0  0  0  0
   -3.4430   11.5871   -7.2363 C   0  0  0  0  0  0  0  0  0  0  0  0
   -4.5944   12.3027   -6.9144 C   0  0  0  0  0  0  0  0  0  0  0  0
   -5.8504   11.7539   -7.1603 C   0  0  0  0  0  0  0  0  0  0  0  0
   -2.0991   12.1752   -6.9687 C   0  0  0  0  0  0  0  0  0  0  0  0
   -1.7663   13.4191   -6.4362 C   0  0  0  0  0  0  0  0  0  0  0  0
   -0.4291   13.4776   -6.3870 N   0  0  0  0  0  0  0  0  0  0  0  0
    0.1723   12.4029   -6.8190 N   0  0  0  0  0  0  0  0  0  0  0  0
   -0.8029   11.5945   -7.2007 C   0  0  0  0  0  0  0  0  0  0  0  0
    0.3904   14.5868   -5.9117 C   0  0  0  0  0  0  0  0  0  0  0  0
   -5.5187   11.6324  -10.3449 H   0  0  0  0  0  0  0  0  0  0  0  0
   -7.0319   12.5715  -10.1102 H   0  0  0  0  0  0  0  0  0  0  0  0
   -8.1900   10.1177  -13.8945 H   0  0  0  0  0  0  0  0  0  0  0  0
   -6.8945   12.2471  -14.0936 H   0  0  0  0  0  0  0  0  0  0  0  0
   -8.0374    9.6016   -7.2571 H   0  0  0  0  0  0  0  0  0  0  0  0
   -4.1641   12.8399  -10.9098 H   0  0  0  0  0  0  0  0  0  0  0  0
   -2.5387   14.5023  -10.9550 H   0  0  0  0  0  0  0  0  0  0  0  0
   -3.0724   14.8267  -12.6391 H   0  0  0  0  0  0  0  0  0  0  0  0
   -3.8811   15.6547  -11.2654 H   0  0  0  0  0  0  0  0  0  0  0  0
   -4.8927    8.7823   -8.4965 H   0  0  0  0  0  0  0  0  0  0  0  0
   -2.6613    9.7546   -8.0533 H   0  0  0  0  0  0  0  0  0  0  0  0
   -4.5126   13.2851   -6.4732 H   0  0  0  0  0  0  0  0  0  0  0  0
   -6.3761   12.4521   -7.8283 H   0  0  0  0  0  0  0  0  0  0  0  0
   -6.3718   11.7094   -6.1927 H   0  0  0  0  0  0  0  0  0  0  0  0
   -2.4554   14.1894   -6.1228 H   0  0  0  0  0  0  0  0  0  0  0  0
   -0.6455   10.6177   -7.6337 H   0  0  0  0  0  0  0  0  0  0  0  0
    1.4543   14.3214   -5.9997 H   0  0  0  0  0  0  0  0  0  0  0  0
    0.1843   15.4810   -6.5183 H   0  0  0  0  0  0  0  0  0  0  0  0
    0.1504   14.7949   -4.8586 H   0  0  0  0  0  0  0  0  0  0  0  0
  1  2  1  0  0  0  0
  1  4  2  0  0  0  0
  1 13  1  0  0  0  0
  2  6  1  0  0  0  0
  3  4  1  0  0  0  0
  3  5  2  0  0  0  0
  5  6  1  0  0  0  0
  5  9  1  0  0  0  0
  6  7  2  0  0  0  0
  7  8  1  0  0  0  0
  7 10  1  0  0  0  0
  8  9  2  0  0  0  0
 10 15  2  3  0  0  0
 11 12  1  0  0  0  0
 11 13  1  0  0  0  0
 13 14  2  0  0  0  0
 15 16  1  0  0  0  0
 15 20  1  0  0  0  0
 16 17  2  0  0  0  0
 17 18  1  0  0  0  0
 18 19  2  0  0  0  0
 18 21  1  0  0  0  0
 19 20  1  0  0  0  0
 21 22  2  0  0  0  0
 21 25  1  0  0  0  0
 22 23  1  0  0  0  0
 23 24  1  0  0  0  0
 23 26  1  0  0  0  0
 24 25  2  0  0  0  0
  2 27  1  0  0  0  0
  2 28  1  0  0  0  0
  3 29  1  0  0  0  0
  4 30  1  0  0  0  0
 10 31  1  0  0  0  0
 11 32  1  0  0  0  0
 12 33  1  0  0  0  0
 12 34  1  0  0  0  0
 12 35  1  0  0  0  0
 16 36  1  0  0  0  0
 17 37  1  0  0  0  0
 19 38  1  0  0  0  0
 20 39  1  0  0  0  0
 20 40  1  0  0  0  0
 22 41  1  0  0  0  0
 25 42  1  0  0  0  0
 26 43  1  0  0  0  0
 26 44  1  0  0  0  0
 26 45  1  0  0  0  0
M  END
> <Name>
19

> <IC50[uM]>
0.015

$$$$
19
  -OEChem-05192314333D
 Structure written by MMmdl.
 45 48  0     1  0  0  0  0  0999 V2000
   -6.3863   12.3686  -12.0106 C   0  0  0  0  0  0  0  0  0  0  0  0
   -6.5303   11.8179  -10.7351 C   0  0  0  0  0  0  0  0  0  0  0  0
   -7.7274   10.5747  -13.0322 C   0  0  0  0  0  0  0  0  0  0  0  0
   -6.9939   11.7717  -13.1290 C   0  0  0  0  0  0  0  0  0  0  0  0
   -7.8233   10.0108  -11.7572 C   0  0  3  0  0  0  0  0  0  0  0  0
   -7.2504   10.6246  -10.6026 C   0  0  0  0  0  0  0  0  0  0  0  0
   -7.6148    9.7488   -9.5126 C   0  0  0  0  0  0  0  0  0  0  0  0
   -8.2772    8.7301   -9.9866 N   0  0  0  0  0  0  0  0  0  0  0  0
   -8.4133    8.8585  -11.2996 N   0  0  0  0  0  0  0  0  0  0  0  0
   -7.3367    9.8906   -8.0265 C   0  0  0  0  0  0  0  0  0  0  0  0
   -4.3739   13.6178  -11.5022 N   0  0  0  0  0  0  0  0  0  0  0  0
   -3.4056   14.7196  -11.5963 C   0  0  0  0  0  0  0  0  0  0  0  0
   -5.5407   13.6198  -12.1903 C   0  0  0  0  0  0  0  0  0  0  0  0
   -5.8948   14.5296  -12.9394 O   0  0  0  0  0  0  0  0  0  0  0  0
   -5.9610   10.4852   -7.7361 C   0  0  0  0  0  0  0  0  0  0  0  0
   -4.8098    9.7648   -8.0558 C   0  0  0  0  0  0  0  0  0  0  0  0
   -3.5520   10.3132   -7.8064 C   0  0  0  0  0  0  0  0  0  0  0  0
   -3.4430   11.5871   -7.2363 C   0  0  0  0  0  0  0  0  0  0  0  0
   -4.5944   12.3027   -6.9144 C   0  0  0  0  0  0  0  0  0  0  0  0
   -5.8504   11.7539   -7.1603 C   0  0  0  0  0  0  0  0  0  0  0  0
   -2.0991   12.1752   -6.9687 C   0  0  0  0  0  0  0  0  0  0  0  0
   -1.7663   13.4191   -6.4362 C   0  0  0  0  0  0  0  0  0  0  0  0
   -0.4291   13.4776   -6.3870 N   0  0  0  0  0  0  0  0  0  0  0  0
    0.1723   12.4029   -6.8190 N   0  0  0  0  0  0  0  0  0  0  0  0
   -0.8029   11.5945   -7.2007 C   0  0  0  0  0  0  0  0  0  0  0  0
    0.3904   14.5868   -5.9117 C   0  0  0  0  0  0  0  0  0  0  0  0
   -6.0966   12.3009   -9.8720 H   0  0  0  0  0  0  0  0  0  0  0  0
   -8.1900   10.1177  -13.8945 H   0  0  0  0  0  0  0  0  0  0  0  0
   -6.8945   12.2471  -14.0936 H   0  0  0  0  0  0  0  0  0  0  0  0
   -8.7607   10.5598  -11.5844 H   0  0  0  0  0  0  0  0  0  0  0  0
   -8.0374    9.6016   -7.2571 H   0  0  0  0  0  0  0  0  0  0  0  0
   -2.5387   14.5023  -10.9550 H   0  0  0  0  0  0  0  0  0  0  0  0
   -3.0724   14.8267  -12.6391 H   0  0  0  0  0  0  0  0  0  0  0  0
   -3.8811   15.6547  -11.2654 H   0  0  0  0  0  0  0  0  0  0  0  0
   -5.2461   15.2234  -12.9243 H   0  0  0  0  0  0  0  0  0  0  0  0
   -4.8927    8.7823   -8.4965 H   0  0  0  0  0  0  0  0  0  0  0  0
   -2.6613    9.7546   -8.0533 H   0  0  0  0  0  0  0  0  0  0  0  0
   -3.4418   12.0376   -8.2398 H   0  0  0  0  0  0  0  0  0  0  0  0
   -4.5126   13.2851   -6.4732 H   0  0  0  0  0  0  0  0  0  0  0  0
   -6.7407   12.3097   -6.9056 H   0  0  0  0  0  0  0  0  0  0  0  0
   -2.4554   14.1894   -6.1228 H   0  0  0  0  0  0  0  0  0  0  0  0
   -0.6455   10.6177   -7.6337 H   0  0  0  0  0  0  0  0  0  0  0  0
    1.4543   14.3214   -5.9997 H   0  0  0  0  0  0  0  0  0  0  0  0
    0.1843   15.4810   -6.5183 H   0  0  0  0  0  0  0  0  0  0  0  0
    0.1504   14.7949   -4.8586 H   0  0  0  0  0  0  0  0  0  0  0  0
  1  2  2  0  0  0  0
  1  4  1  0  0  0  0
  1 13  1  0  0  0  0
  2  6  1  0  0  0  0
  3  4  2  0  0  0  0
  3  5  1  0  0  0  0
  5  6  1  0  0  0  0
  5  9  1  0  0  0  0
  6  7  2  0  0  0  0
  7  8  1  0  0  0  0
  7 10  1  0  0  0  0
  8  9  2  0  0  0  0
 10 15  2  0  0  0  0
 11 12  1  0  0  0  0
 11 13  2  0  0  0  0
 13 14  1  0  0  0  0
 15 16  1  0  0  0  0
 15 20  1  0  0  0  0
 16 17  2  0  0  0  0
 17 18  1  0  0  0  0
 18 19  1  0  0  0  0
 18 21  1  0  0  0  0
 19 20  2  0  0  0  0
 21 22  2  0  0  0  0
 21 25  1  0  0  0  0
 22 23  1  0  0  0  0
 23 24  1  0  0  0  0
 23 26  1  0  0  0  0
 24 25  2  0  0  0  0
  2 27  1  0  0  0  0
  3 28  1  0  0  0  0
  4 29  1  0  0  0  0
  5 30  1  0  0  0  0
 10 31  1  0  0  0  0
 12 32  1  0  0  0  0
 12 33  1  0  0  0  0
 12 34  1  0  0  0  0
 14 35  1  0  0  0  0
 16 36  1  0  0  0  0
 17 37  1  0  0  0  0
 18 38  1  0  0  0  0
 19 39  1  0  0  0  0
 20 40  1  0  0  0  0
 22 41  1  0  0  0  0
 25 42  1  0  0  0  0
 26 43  1  0  0  0  0
 26 44  1  0  0  0  0
 26 45  1  0  0  0  0
M  END
> <Name>
19

> <IC50[uM]>
0.015

$$$$
19
  -OEChem-05192314333D
 Structure written by MMmdl.
 45 48  0     0  0  0  0  0  0999 V2000
   -6.3863   12.3686  -12.0106 C   0  0  0  0  0  0  0  0  0  0  0  0
   -6.5303   11.8179  -10.7351 C   0  0  0  0  0  0  0  0  0  0  0  0
   -7.7274   10.5747  -13.0322 C   0  0  0  0  0  0  0  0  0  0  0  0
   -6.9939   11.7717  -13.1290 C   0  0  0  0  0  0  0  0  0  0  0  0
   -7.8233   10.0108  -11.7572 C   0  0  0  0  0  0  0  0  0  0  0  0
   -7.2504   10.6246  -10.6026 C   0  0  0  0  0  0  0  0  0  0  0  0
   -7.6148    9.7488   -9.5126 C   0  0  0  0  0  0  0  0  0  0  0  0
   -8.2772    8.7301   -9.9866 N   0  0  0  0  0  0  0  0  0  0  0  0
   -8.4133    8.8585  -11.2996 N   0  0  0  0  0  0  0  0  0  0  0  0
   -7.3367    9.8906   -8.0265 C   0  0  0  0  0  0  0  0  0  0  0  0
   -4.3739   13.6178  -11.5022 N   0  0  0  0  0  0  0  0  0  0  0  0
   -3.4056   14.7196  -11.5963 C   0  0  0  0  0  0  0  0  0  0  0  0
   -5.5407   13.6198  -12.1903 C   0  0  0  0  0  0  0  0  0  0  0  0
   -5.8948   14.5296  -12.9394 O   0  0  0  0  0  0  0  0  0  0  0  0
   -5.9610   10.4852   -7.7361 C   0  0  0  0  0  0  0  0  0  0  0  0
   -4.8098    9.7648   -8.0558 C   0  0  0  0  0  0  0  0  0  0  0  0
   -3.5520   10.3132   -7.8064 C   0  0  0  0  0  0  0  0  0  0  0  0
   -3.4430   11.5871   -7.2363 C   0  0  0  0  0  0  0  0  0  0  0  0
   -4.5944   12.3027   -6.9144 C   0  0  0  0  0  0  0  0  0  0  0  0
   -5.8504   11.7539   -7.1603 C   0  0  0  0  0  0  0  0  0  0  0  0
   -2.0991   12.1752   -6.9687 C   0  0  0  0  0  0  0  0  0  0  0  0
   -1.7663   13.4191   -6.4362 C   0  0  0  0  0  0  0  0  0  0  0  0
   -0.4291   13.4776   -6.3870 N   0  0  0  0  0  0  0  0  0  0  0  0
    0.1723   12.4029   -6.8190 N   0  0  0  0  0  0  0  0  0  0  0  0
   -0.8029   11.5945   -7.2007 C   0  0  0  0  0  0  0  0  0  0  0  0
    0.3904   14.5868   -5.9117 C   0  0  0  0  0  0  0  0  0  0  0  0
   -6.0966   12.3009   -9.8720 H   0  0  0  0  0  0  0  0  0  0  0  0
   -8.1900   10.1177  -13.8945 H   0  0  0  0  0  0  0  0  0  0  0  0
   -7.6841   12.5226  -13.5411 H   0  0  0  0  0  0  0  0  0  0  0  0
   -6.1868   11.5800  -13.8514 H   0  0  0  0  0  0  0  0  0  0  0  0
   -8.0374    9.6016   -7.2571 H   0  0  0  0  0  0  0  0  0  0  0  0
   -2.5387   14.5023  -10.9550 H   0  0  0  0  0  0  0  0  0  0  0  0
   -3.0724   14.8267  -12.6391 H   0  0  0  0  0  0  0  0  0  0  0  0
   -3.8811   15.6547  -11.2654 H   0  0  0  0  0  0  0  0  0  0  0  0
   -5.2461   15.2234  -12.9243 H   0  0  0  0  0  0  0  0  0  0  0  0
   -4.8927    8.7823   -8.4965 H   0  0  0  0  0  0  0  0  0  0  0  0
   -2.6613    9.7546   -8.0533 H   0  0  0  0  0  0  0  0  0  0  0  0
   -3.4418   12.0376   -8.2398 H   0  0  0  0  0  0  0  0  0  0  0  0
   -4.5126   13.2851   -6.4732 H   0  0  0  0  0  0  0  0  0  0  0  0
   -6.7407   12.3097   -6.9056 H   0  0  0  0  0  0  0  0  0  0  0  0
   -2.4554   14.1894   -6.1228 H   0  0  0  0  0  0  0  0  0  0  0  0
   -0.6455   10.6177   -7.6337 H   0  0  0  0  0  0  0  0  0  0  0  0
    1.4543   14.3214   -5.9997 H   0  0  0  0  0  0  0  0  0  0  0  0
    0.1843   15.4810   -6.5183 H   0  0  0  0  0  0  0  0  0  0  0  0
    0.1504   14.7949   -4.8586 H   0  0  0  0  0  0  0  0  0  0  0  0
  1  2  2  0  0  0  0
  1  4  1  0  0  0  0
  1 13  1  0  0  0  0
  2  6  1  0  0  0  0
  3  4  1  0  0  0  0
  3  5  2  0  0  0  0
  5  6  1  0  0  0  0
  5  9  1  0  0  0  0
  6  7  2  0  0  0  0
  7  8  1  0  0  0  0
  7 10  1  0  0  0  0
  8  9  2  0  0  0  0
 10 15  2  0  0  0  0
 11 12  1  0  0  0  0
 11 13  2  0  0  0  0
 13 14  1  0  0  0  0
 15 16  1  0  0  0  0
 15 20  1  0  0  0  0
 16 17  2  0  0  0  0
 17 18  1  0  0  0  0
 18 19  1  0  0  0  0
 18 21  1  0  0  0  0
 19 20  2  0  0  0  0
 21 22  2  0  0  0  0
 21 25  1  0  0  0  0
 22 23  1  0  0  0  0
 23 24  1  0  0  0  0
 23 26  1  0  0  0  0
 24 25  2  0  0  0  0
  2 27  1  0  0  0  0
  3 28  1  0  0  0  0
  4 29  1  0  0  0  0
  4 30  1  0  0  0  0
 10 31  1  0  0  0  0
 12 32  1  0  0  0  0
 12 33  1  0  0  0  0
 12 34  1  0  0  0  0
 14 35  1  0  0  0  0
 16 36  1  0  0  0  0
 17 37  1  0  0  0  0
 18 38  1  0  0  0  0
 19 39  1  0  0  0  0
 20 40  1  0  0  0  0
 22 41  1  0  0  0  0
 25 42  1  0  0  0  0
 26 43  1  0  0  0  0
 26 44  1  0  0  0  0
 26 45  1  0  0  0  0
M  END
> <Name>
19

> <IC50[uM]>
0.015

$$$$
19
  -OEChem-05192314333D
 Structure written by MMmdl.
 45 48  0     1  0  0  0  0  0999 V2000
   -6.3863   12.3686  -12.0106 C   0  0  0  0  0  0  0  0  0  0  0  0
   -6.5303   11.8179  -10.7351 C   0  0  0  0  0  0  0  0  0  0  0  0
   -7.7274   10.5747  -13.0322 C   0  0  0  0  0  0  0  0  0  0  0  0
   -6.9939   11.7717  -13.1290 C   0  0  0  0  0  0  0  0  0  0  0  0
   -7.8233   10.0108  -11.7572 C   0  0  3  0  0  0  0  0  0  0  0  0
   -7.2504   10.6246  -10.6026 C   0  0  0  0  0  0  0  0  0  0  0  0
   -7.6148    9.7488   -9.5126 C   0  0  0  0  0  0  0  0  0  0  0  0
   -8.2772    8.7301   -9.9866 N   0  0  0  0  0  0  0  0  0  0  0  0
   -8.4133    8.8585  -11.2996 N   0  0  0  0  0  0  0  0  0  0  0  0
   -7.3367    9.8906   -8.0265 C   0  0  0  0  0  0  0  0  0  0  0  0
   -4.3739   13.6178  -11.5022 N   0  0  0  0  0  0  0  0  0  0  0  0
   -3.4056   14.7196  -11.5963 C   0  0  0  0  0  0  0  0  0  0  0  0
   -5.5407   13.6198  -12.1903 C   0  0  0  0  0  0  0  0  0  0  0  0
   -5.8948   14.5296  -12.9394 O   0  0  0  0  0  0  0  0  0  0  0  0
   -5.9610   10.4852   -7.7361 C   0  0  0  0  0  0  0  0  0  0  0  0
   -4.8098    9.7648   -8.0558 C   0  0  0  0  0  0  0  0  0  0  0  0
   -3.5520   10.3132   -7.8064 C   0  0  0  0  0  0  0  0  0  0  0  0
   -3.4430   11.5871   -7.2363 C   0  0  0  0  0  0  0  0  0  0  0  0
   -4.5944   12.3027   -6.9144 C   0  0  0  0  0  0  0  0  0  0  0  0
   -5.8504   11.7539   -7.1603 C   0  0  0  0  0  0  0  0  0  0  0  0
   -2.0991   12.1752   -6.9687 C   0  0  0  0  0  0  0  0  0  0  0  0
   -1.7663   13.4191   -6.4362 C   0  0  0  0  0  0  0  0  0  0  0  0
   -0.4291   13.4776   -6.3870 N   0  0  0  0  0  0  0  0  0  0  0  0
    0.1723   12.4029   -6.8190 N   0  0  0  0  0  0  0  0  0  0  0  0
   -0.8029   11.5945   -7.2007 C   0  0  0  0  0  0  0  0  0  0  0  0
    0.3904   14.5868   -5.9117 C   0  0  0  0  0  0  0  0  0  0  0  0
   -6.0966   12.3009   -9.8720 H   0  0  0  0  0  0  0  0  0  0  0  0
   -8.1900   10.1177  -13.8945 H   0  0  0  0  0  0  0  0  0  0  0  0
   -6.8945   12.2471  -14.0936 H   0  0  0  0  0  0  0  0  0  0  0  0
   -8.7607   10.5598  -11.5844 H   0  0  0  0  0  0  0  0  0  0  0  0
   -8.0374    9.6016   -7.2571 H   0  0  0  0  0  0  0  0  0  0  0  0
   -2.5387   14.5023  -10.9550 H   0  0  0  0  0  0  0  0  0  0  0  0
   -3.0724   14.8267  -12.6391 H   0  0  0  0  0  0  0  0  0  0  0  0
   -3.8811   15.6547  -11.2654 H   0  0  0  0  0  0  0  0  0  0  0  0
   -5.2461   15.2234  -12.9243 H   0  0  0  0  0  0  0  0  0  0  0  0
   -4.8927    8.7823   -8.4965 H   0  0  0  0  0  0  0  0  0  0  0  0
   -2.6613    9.7546   -8.0533 H   0  0  0  0  0  0  0  0  0  0  0  0
   -4.5126   13.2851   -6.4732 H   0  0  0  0  0  0  0  0  0  0  0  0
   -6.3761   12.4521   -7.8283 H   0  0  0  0  0  0  0  0  0  0  0  0
   -6.3718   11.7094   -6.1927 H   0  0  0  0  0  0  0  0  0  0  0  0
   -2.4554   14.1894   -6.1228 H   0  0  0  0  0  0  0  0  0  0  0  0
   -0.6455   10.6177   -7.6337 H   0  0  0  0  0  0  0  0  0  0  0  0
    1.4543   14.3214   -5.9997 H   0  0  0  0  0  0  0  0  0  0  0  0
    0.1843   15.4810   -6.5183 H   0  0  0  0  0  0  0  0  0  0  0  0
    0.1504   14.7949   -4.8586 H   0  0  0  0  0  0  0  0  0  0  0  0
  1  2  2  0  0  0  0
  1  4  1  0  0  0  0
  1 13  1  0  0  0  0
  2  6  1  0  0  0  0
  3  4  2  0  0  0  0
  3  5  1  0  0  0  0
  5  6  1  0  0  0  0
  5  9  1  0  0  0  0
  6  7  2  0  0  0  0
  7  8  1  0  0  0  0
  7 10  1  0  0  0  0
  8  9  2  0  0  0  0
 10 15  2  3  0  0  0
 11 12  1  0  0  0  0
 11 13  2  0  0  0  0
 13 14  1  0  0  0  0
 15 16  1  0  0  0  0
 15 20  1  0  0  0  0
 16 17  2  0  0  0  0
 17 18  1  0  0  0  0
 18 19  2  0  0  0  0
 18 21  1  0  0  0  0
 19 20  1  0  0  0  0
 21 22  2  0  0  0  0
 21 25  1  0  0  0  0
 22 23  1  0  0  0  0
 23 24  1  0  0  0  0
 23 26  1  0  0  0  0
 24 25  2  0  0  0  0
  2 27  1  0  0  0  0
  3 28  1  0  0  0  0
  4 29  1  0  0  0  0
  5 30  1  0  0  0  0
 10 31  1  0  0  0  0
 12 32  1  0  0  0  0
 12 33  1  0  0  0  0
 12 34  1  0  0  0  0
 14 35  1  0  0  0  0
 16 36  1  0  0  0  0
 17 37  1  0  0  0  0
 19 38  1  0  0  0  0
 20 39  1  0  0  0  0
 20 40  1  0  0  0  0
 22 41  1  0  0  0  0
 25 42  1  0  0  0  0
 26 43  1  0  0  0  0
 26 44  1  0  0  0  0
 26 45  1  0  0  0  0
M  END
> <Name>
19

> <IC50[uM]>
0.015

$$$$
19
  -OEChem-05192314333D
 Structure written by MMmdl.
 45 48  0     0  0  0  0  0  0999 V2000
   -6.3863   12.3686  -12.0106 C   0  0  0  0  0  0  0  0  0  0  0  0
   -6.5303   11.8179  -10.7351 C   0  0  0  0  0  0  0  0  0  0  0  0
   -7.7274   10.5747  -13.0322 C   0  0  0  0  0  0  0  0  0  0  0  0
   -6.9939   11.7717  -13.1290 C   0  0  0  0  0  0  0  0  0  0  0  0
   -7.8233   10.0108  -11.7572 C   0  0  0  0  0  0  0  0  0  0  0  0
   -7.2504   10.6246  -10.6026 C   0  0  0  0  0  0  0  0  0  0  0  0
   -7.6148    9.7488   -9.5126 C   0  0  0  0  0  0  0  0  0  0  0  0
   -8.2772    8.7301   -9.9866 N   0  0  0  0  0  0  0  0  0  0  0  0
   -8.4133    8.8585  -11.2996 N   0  0  0  0  0  0  0  0  0  0  0  0
   -7.3367    9.8906   -8.0265 C   0  0  0  0  0  0  0  0  0  0  0  0
   -4.3739   13.6178  -11.5022 N   0  0  0  0  0  0  0  0  0  0  0  0
   -3.4056   14.7196  -11.5963 C   0  0  0  0  0  0  0  0  0  0  0  0
   -5.5407   13.6198  -12.1903 C   0  0  0  0  0  0  0  0  0  0  0  0
   -5.8948   14.5296  -12.9394 O   0  0  0  0  0  0  0  0  0  0  0  0
   -5.9610   10.4852   -7.7361 C   0  0  0  0  0  0  0  0  0  0  0  0
   -4.8098    9.7648   -8.0558 C   0  0  0  0  0  0  0  0  0  0  0  0
   -3.5520   10.3132   -7.8064 C   0  0  0  0  0  0  0  0  0  0  0  0
   -3.4430   11.5871   -7.2363 C   0  0  0  0  0  0  0  0  0  0  0  0
   -4.5944   12.3027   -6.9144 C   0  0  0  0  0  0  0  0  0  0  0  0
   -5.8504   11.7539   -7.1603 C   0  0  0  0  0  0  0  0  0  0  0  0
   -2.0991   12.1752   -6.9687 C   0  0  0  0  0  0  0  0  0  0  0  0
   -1.7663   13.4191   -6.4362 C   0  0  0  0  0  0  0  0  0  0  0  0
   -0.4291   13.4776   -6.3870 N   0  0  0  0  0  0  0  0  0  0  0  0
    0.1723   12.4029   -6.8190 N   0  0  0  0  0  0  0  0  0  0  0  0
   -0.8029   11.5945   -7.2007 C   0  0  0  0  0  0  0  0  0  0  0  0
    0.3904   14.5868   -5.9117 C   0  0  0  0  0  0  0  0  0  0  0  0
   -6.0966   12.3009   -9.8720 H   0  0  0  0  0  0  0  0  0  0  0  0
   -8.1900   10.1177  -13.8945 H   0  0  0  0  0  0  0  0  0  0  0  0
   -7.6841   12.5226  -13.5411 H   0  0  0  0  0  0  0  0  0  0  0  0
   -6.1868   11.5800  -13.8514 H   0  0  0  0  0  0  0  0  0  0  0  0
   -8.0374    9.6016   -7.2571 H   0  0  0  0  0  0  0  0  0  0  0  0
   -2.5387   14.5023  -10.9550 H   0  0  0  0  0  0  0  0  0  0  0  0
   -3.0724   14.8267  -12.6391 H   0  0  0  0  0  0  0  0  0  0  0  0
   -3.8811   15.6547  -11.2654 H   0  0  0  0  0  0  0  0  0  0  0  0
   -5.2461   15.2234  -12.9243 H   0  0  0  0  0  0  0  0  0  0  0  0
   -4.8927    8.7823   -8.4965 H   0  0  0  0  0  0  0  0  0  0  0  0
   -2.6613    9.7546   -8.0533 H   0  0  0  0  0  0  0  0  0  0  0  0
   -4.5126   13.2851   -6.4732 H   0  0  0  0  0  0  0  0  0  0  0  0
   -6.3761   12.4521   -7.8283 H   0  0  0  0  0  0  0  0  0  0  0  0
   -6.3718   11.7094   -6.1927 H   0  0  0  0  0  0  0  0  0  0  0  0
   -2.4554   14.1894   -6.1228 H   0  0  0  0  0  0  0  0  0  0  0  0
   -0.6455   10.6177   -7.6337 H   0  0  0  0  0  0  0  0  0  0  0  0
    1.4543   14.3214   -5.9997 H   0  0  0  0  0  0  0  0  0  0  0  0
    0.1843   15.4810   -6.5183 H   0  0  0  0  0  0  0  0  0  0  0  0
    0.1504   14.7949   -4.8586 H   0  0  0  0  0  0  0  0  0  0  0  0
  1  2  2  0  0  0  0
  1  4  1  0  0  0  0
  1 13  1  0  0  0  0
  2  6  1  0  0  0  0
  3  4  1  0  0  0  0
  3  5  2  0  0  0  0
  5  6  1  0  0  0  0
  5  9  1  0  0  0  0
  6  7  2  0  0  0  0
  7  8  1  0  0  0  0
  7 10  1  0  0  0  0
  8  9  2  0  0  0  0
 10 15  2  3  0  0  0
 11 12  1  0  0  0  0
 11 13  2  0  0  0  0
 13 14  1  0  0  0  0
 15 16  1  0  0  0  0
 15 20  1  0  0  0  0
 16 17  2  0  0  0  0
 17 18  1  0  0  0  0
 18 19  2  0  0  0  0
 18 21  1  0  0  0  0
 19 20  1  0  0  0  0
 21 22  2  0  0  0  0
 21 25  1  0  0  0  0
 22 23  1  0  0  0  0
 23 24  1  0  0  0  0
 23 26  1  0  0  0  0
 24 25  2  0  0  0  0
  2 27  1  0  0  0  0
  3 28  1  0  0  0  0
  4 29  1  0  0  0  0
  4 30  1  0  0  0  0
 10 31  1  0  0  0  0
 12 32  1  0  0  0  0
 12 33  1  0  0  0  0
 12 34  1  0  0  0  0
 14 35  1  0  0  0  0
 16 36  1  0  0  0  0
 17 37  1  0  0  0  0
 19 38  1  0  0  0  0
 20 39  1  0  0  0  0
 20 40  1  0  0  0  0
 22 41  1  0  0  0  0
 25 42  1  0  0  0  0
 26 43  1  0  0  0  0
 26 44  1  0  0  0  0
 26 45  1  0  0  0  0
M  END
> <Name>
19

> <IC50[uM]>
0.015

$$$$
19
  -OEChem-05192314333D
 Structure written by MMmdl.
 45 48  0     0  0  0  0  0  0999 V2000
   -6.3863   12.3686  -12.0106 C   0  0  0  0  0  0  0  0  0  0  0  0
   -6.5303   11.8179  -10.7351 C   0  0  0  0  0  0  0  0  0  0  0  0
   -7.7274   10.5747  -13.0322 C   0  0  0  0  0  0  0  0  0  0  0  0
   -6.9939   11.7717  -13.1290 C   0  0  0  0  0  0  0  0  0  0  0  0
   -7.8233   10.0108  -11.7572 C   0  0  0  0  0  0  0  0  0  0  0  0
   -7.2504   10.6246  -10.6026 C   0  0  0  0  0  0  0  0  0  0  0  0
   -7.6148    9.7488   -9.5126 C   0  0  0  0  0  0  0  0  0  0  0  0
   -8.2772    8.7301   -9.9866 N   0  0  0  0  0  0  0  0  0  0  0  0
   -8.4133    8.8585  -11.2996 N   0  0  0  0  0  0  0  0  0  0  0  0
   -7.3367    9.8906   -8.0265 C   0  0  0  0  0  0  0  0  0  0  0  0
   -4.3739   13.6178  -11.5022 N   0  0  0  0  0  0  0  0  0  0  0  0
   -3.4056   14.7196  -11.5963 C   0  0  0  0  0  0  0  0  0  0  0  0
   -5.5407   13.6198  -12.1903 C   0  0  0  0  0  0  0  0  0  0  0  0
   -5.8948   14.5296  -12.9394 O   0  0  0  0  0  0  0  0  0  0  0  0
   -5.9610   10.4852   -7.7361 C   0  0  0  0  0  0  0  0  0  0  0  0
   -4.8098    9.7648   -8.0558 C   0  0  0  0  0  0  0  0  0  0  0  0
   -3.5520   10.3132   -7.8064 C   0  0  0  0  0  0  0  0  0  0  0  0
   -3.4430   11.5871   -7.2363 C   0  0  0  0  0  0  0  0  0  0  0  0
   -4.5944   12.3027   -6.9144 C   0  0  0  0  0  0  0  0  0  0  0  0
   -5.8504   11.7539   -7.1603 C   0  0  0  0  0  0  0  0  0  0  0  0
   -2.0991   12.1752   -6.9687 C   0  0  0  0  0  0  0  0  0  0  0  0
   -1.7663   13.4191   -6.4362 C   0  0  0  0  0  0  0  0  0  0  0  0
   -0.4291   13.4776   -6.3870 N   0  0  0  0  0  0  0  0  0  0  0  0
    0.1723   12.4029   -6.8190 N   0  0  0  0  0  0  0  0  0  0  0  0
   -0.8029   11.5945   -7.2007 C   0  0  0  0  0  0  0  0  0  0  0  0
    0.3904   14.5868   -5.9117 C   0  0  0  0  0  0  0  0  0  0  0  0
   -5.5187   11.6324  -10.3449 H   0  0  0  0  0  0  0  0  0  0  0  0
   -7.0319   12.5715  -10.1102 H   0  0  0  0  0  0  0  0  0  0  0  0
   -8.1900   10.1177  -13.8945 H   0  0  0  0  0  0  0  0  0  0  0  0
   -6.8945   12.2471  -14.0936 H   0  0  0  0  0  0  0  0  0  0  0  0
   -8.0374    9.6016   -7.2571 H   0  0  0  0  0  0  0  0  0  0  0  0
   -2.5387   14.5023  -10.9550 H   0  0  0  0  0  0  0  0  0  0  0  0
   -3.0724   14.8267  -12.6391 H   0  0  0  0  0  0  0  0  0  0  0  0
   -3.8811   15.6547  -11.2654 H   0  0  0  0  0  0  0  0  0  0  0  0
   -5.2461   15.2234  -12.9243 H   0  0  0  0  0  0  0  0  0  0  0  0
   -4.8927    8.7823   -8.4965 H   0  0  0  0  0  0  0  0  0  0  0  0
   -2.6613    9.7546   -8.0533 H   0  0  0  0  0  0  0  0  0  0  0  0
   -3.4418   12.0376   -8.2398 H   0  0  0  0  0  0  0  0  0  0  0  0
   -4.5126   13.2851   -6.4732 H   0  0  0  0  0  0  0  0  0  0  0  0
   -6.7407   12.3097   -6.9056 H   0  0  0  0  0  0  0  0  0  0  0  0
   -2.4554   14.1894   -6.1228 H   0  0  0  0  0  0  0  0  0  0  0  0
   -0.6455   10.6177   -7.6337 H   0  0  0  0  0  0  0  0  0  0  0  0
    1.4543   14.3214   -5.9997 H   0  0  0  0  0  0  0  0  0  0  0  0
    0.1843   15.4810   -6.5183 H   0  0  0  0  0  0  0  0  0  0  0  0
    0.1504   14.7949   -4.8586 H   0  0  0  0  0  0  0  0  0  0  0  0
  1  2  1  0  0  0  0
  1  4  2  0  0  0  0
  1 13  1  0  0  0  0
  2  6  1  0  0  0  0
  3  4  1  0  0  0  0
  3  5  2  0  0  0  0
  5  6  1  0  0  0  0
  5  9  1  0  0  0  0
  6  7  2  0  0  0  0
  7  8  1  0  0  0  0
  7 10  1  0  0  0  0
  8  9  2  0  0  0  0
 10 15  2  0  0  0  0
 11 12  1  0  0  0  0
 11 13  2  0  0  0  0
 13 14  1  0  0  0  0
 15 16  1  0  0  0  0
 15 20  1  0  0  0  0
 16 17  2  0  0  0  0
 17 18  1  0  0  0  0
 18 19  1  0  0  0  0
 18 21  1  0  0  0  0
 19 20  2  0  0  0  0
 21 22  2  0  0  0  0
 21 25  1  0  0  0  0
 22 23  1  0  0  0  0
 23 24  1  0  0  0  0
 23 26  1  0  0  0  0
 24 25  2  0  0  0  0
  2 27  1  0  0  0  0
  2 28  1  0  0  0  0
  3 29  1  0  0  0  0
  4 30  1  0  0  0  0
 10 31  1  0  0  0  0
 12 32  1  0  0  0  0
 12 33  1  0  0  0  0
 12 34  1  0  0  0  0
 14 35  1  0  0  0  0
 16 36  1  0  0  0  0
 17 37  1  0  0  0  0
 18 38  1  0  0  0  0
 19 39  1  0  0  0  0
 20 40  1  0  0  0  0
 22 41  1  0  0  0  0
 25 42  1  0  0  0  0
 26 43  1  0  0  0  0
 26 44  1  0  0  0  0
 26 45  1  0  0  0  0
M  END
> <Name>
19

> <IC50[uM]>
0.015

$$$$
19
  -OEChem-05192314333D
 Structure written by MMmdl.
 45 48  0     0  0  0  0  0  0999 V2000
   -6.3863   12.3686  -12.0106 C   0  0  0  0  0  0  0  0  0  0  0  0
   -6.5303   11.8179  -10.7351 C   0  0  0  0  0  0  0  0  0  0  0  0
   -7.7274   10.5747  -13.0322 C   0  0  0  0  0  0  0  0  0  0  0  0
   -6.9939   11.7717  -13.1290 C   0  0  0  0  0  0  0  0  0  0  0  0
   -7.8233   10.0108  -11.7572 C   0  0  0  0  0  0  0  0  0  0  0  0
   -7.2504   10.6246  -10.6026 C   0  0  0  0  0  0  0  0  0  0  0  0
   -7.6148    9.7488   -9.5126 C   0  0  0  0  0  0  0  0  0  0  0  0
   -8.2772    8.7301   -9.9866 N   0  0  0  0  0  0  0  0  0  0  0  0
   -8.4133    8.8585  -11.2996 N   0  0  0  0  0  0  0  0  0  0  0  0
   -7.3367    9.8906   -8.0265 C   0  0  0  0  0  0  0  0  0  0  0  0
   -4.3739   13.6178  -11.5022 N   0  0  0  0  0  0  0  0  0  0  0  0
   -3.4056   14.7196  -11.5963 C   0  0  0  0  0  0  0  0  0  0  0  0
   -5.5407   13.6198  -12.1903 C   0  0  0  0  0  0  0  0  0  0  0  0
   -5.8948   14.5296  -12.9394 O   0  0  0  0  0  0  0  0  0  0  0  0
   -5.9610   10.4852   -7.7361 C   0  0  0  0  0  0  0  0  0  0  0  0
   -4.8098    9.7648   -8.0558 C   0  0  0  0  0  0  0  0  0  0  0  0
   -3.5520   10.3132   -7.8064 C   0  0  0  0  0  0  0  0  0  0  0  0
   -3.4430   11.5871   -7.2363 C   0  0  0  0  0  0  0  0  0  0  0  0
   -4.5944   12.3027   -6.9144 C   0  0  0  0  0  0  0  0  0  0  0  0
   -5.8504   11.7539   -7.1603 C   0  0  0  0  0  0  0  0  0  0  0  0
   -2.0991   12.1752   -6.9687 C   0  0  0  0  0  0  0  0  0  0  0  0
   -1.7663   13.4191   -6.4362 C   0  0  0  0  0  0  0  0  0  0  0  0
   -0.4291   13.4776   -6.3870 N   0  0  0  0  0  0  0  0  0  0  0  0
    0.1723   12.4029   -6.8190 N   0  0  0  0  0  0  0  0  0  0  0  0
   -0.8029   11.5945   -7.2007 C   0  0  0  0  0  0  0  0  0  0  0  0
    0.3904   14.5868   -5.9117 C   0  0  0  0  0  0  0  0  0  0  0  0
   -5.5187   11.6324  -10.3449 H   0  0  0  0  0  0  0  0  0  0  0  0
   -7.0319   12.5715  -10.1102 H   0  0  0  0  0  0  0  0  0  0  0  0
   -8.1900   10.1177  -13.8945 H   0  0  0  0  0  0  0  0  0  0  0  0
   -6.8945   12.2471  -14.0936 H   0  0  0  0  0  0  0  0  0  0  0  0
   -8.0374    9.6016   -7.2571 H   0  0  0  0  0  0  0  0  0  0  0  0
   -2.5387   14.5023  -10.9550 H   0  0  0  0  0  0  0  0  0  0  0  0
   -3.0724   14.8267  -12.6391 H   0  0  0  0  0  0  0  0  0  0  0  0
   -3.8811   15.6547  -11.2654 H   0  0  0  0  0  0  0  0  0  0  0  0
   -5.2461   15.2234  -12.9243 H   0  0  0  0  0  0  0  0  0  0  0  0
   -4.8927    8.7823   -8.4965 H   0  0  0  0  0  0  0  0  0  0  0  0
   -2.6613    9.7546   -8.0533 H   0  0  0  0  0  0  0  0  0  0  0  0
   -4.5126   13.2851   -6.4732 H   0  0  0  0  0  0  0  0  0  0  0  0
   -6.3761   12.4521   -7.8283 H   0  0  0  0  0  0  0  0  0  0  0  0
   -6.3718   11.7094   -6.1927 H   0  0  0  0  0  0  0  0  0  0  0  0
   -2.4554   14.1894   -6.1228 H   0  0  0  0  0  0  0  0  0  0  0  0
   -0.6455   10.6177   -7.6337 H   0  0  0  0  0  0  0  0  0  0  0  0
    1.4543   14.3214   -5.9997 H   0  0  0  0  0  0  0  0  0  0  0  0
    0.1843   15.4810   -6.5183 H   0  0  0  0  0  0  0  0  0  0  0  0
    0.1504   14.7949   -4.8586 H   0  0  0  0  0  0  0  0  0  0  0  0
  1  2  1  0  0  0  0
  1  4  2  0  0  0  0
  1 13  1  0  0  0  0
  2  6  1  0  0  0  0
  3  4  1  0  0  0  0
  3  5  2  0  0  0  0
  5  6  1  0  0  0  0
  5  9  1  0  0  0  0
  6  7  2  0  0  0  0
  7  8  1  0  0  0  0
  7 10  1  0  0  0  0
  8  9  2  0  0  0  0
 10 15  2  3  0  0  0
 11 12  1  0  0  0  0
 11 13  2  0  0  0  0
 13 14  1  0  0  0  0
 15 16  1  0  0  0  0
 15 20  1  0  0  0  0
 16 17  2  0  0  0  0
 17 18  1  0  0  0  0
 18 19  2  0  0  0  0
 18 21  1  0  0  0  0
 19 20  1  0  0  0  0
 21 22  2  0  0  0  0
 21 25  1  0  0  0  0
 22 23  1  0  0  0  0
 23 24  1  0  0  0  0
 23 26  1  0  0  0  0
 24 25  2  0  0  0  0
  2 27  1  0  0  0  0
  2 28  1  0  0  0  0
  3 29  1  0  0  0  0
  4 30  1  0  0  0  0
 10 31  1  0  0  0  0
 12 32  1  0  0  0  0
 12 33  1  0  0  0  0
 12 34  1  0  0  0  0
 14 35  1  0  0  0  0
 16 36  1  0  0  0  0
 17 37  1  0  0  0  0
 19 38  1  0  0  0  0
 20 39  1  0  0  0  0
 20 40  1  0  0  0  0
 22 41  1  0  0  0  0
 25 42  1  0  0  0  0
 26 43  1  0  0  0  0
 26 44  1  0  0  0  0
 26 45  1  0  0  0  0
M  END
> <Name>
19

> <IC50[uM]>
0.015

$$$$
19
  -OEChem-05192314333D
 Structure written by MMmdl.
 45 48  0     0  0  0  0  0  0999 V2000
   -6.3863   12.3686  -12.0106 C   0  0  0  0  0  0  0  0  0  0  0  0
   -6.5303   11.8179  -10.7351 C   0  0  0  0  0  0  0  0  0  0  0  0
   -7.7274   10.5747  -13.0322 C   0  0  0  0  0  0  0  0  0  0  0  0
   -6.9939   11.7717  -13.1290 C   0  0  0  0  0  0  0  0  0  0  0  0
   -7.8233   10.0108  -11.7572 C   0  0  0  0  0  0  0  0  0  0  0  0
   -7.2504   10.6246  -10.6026 C   0  0  0  0  0  0  0  0  0  0  0  0
   -7.6148    9.7488   -9.5126 C   0  0  0  0  0  0  0  0  0  0  0  0
   -8.2772    8.7301   -9.9866 N   0  0  0  0  0  0  0  0  0  0  0  0
   -8.4133    8.8585  -11.2996 N   0  0  0  0  0  0  0  0  0  0  0  0
   -7.3367    9.8906   -8.0265 C   0  0  0  0  0  0  0  0  0  0  0  0
   -4.3739   13.6178  -11.5022 N   0  0  0  0  0  0  0  0  0  0  0  0
   -3.4056   14.7196  -11.5963 C   0  0  0  0  0  0  0  0  0  0  0  0
   -5.5407   13.6198  -12.1903 C   0  0  0  0  0  0  0  0  0  0  0  0
   -5.8948   14.5296  -12.9394 O   0  0  0  0  0  0  0  0  0  0  0  0
   -5.9610   10.4852   -7.7361 C   0  0  0  0  0  0  0  0  0  0  0  0
   -4.8098    9.7648   -8.0558 C   0  0  0  0  0  0  0  0  0  0  0  0
   -3.5520   10.3132   -7.8064 C   0  0  0  0  0  0  0  0  0  0  0  0
   -3.4430   11.5871   -7.2363 C   0  0  0  0  0  0  0  0  0  0  0  0
   -4.5944   12.3027   -6.9144 C   0  0  0  0  0  0  0  0  0  0  0  0
   -5.8504   11.7539   -7.1603 C   0  0  0  0  0  0  0  0  0  0  0  0
   -2.0991   12.1752   -6.9687 C   0  0  0  0  0  0  0  0  0  0  0  0
   -1.7663   13.4191   -6.4362 C   0  0  0  0  0  0  0  0  0  0  0  0
   -0.4291   13.4776   -6.3870 N   0  0  0  0  0  0  0  0  0  0  0  0
    0.1723   12.4029   -6.8190 N   0  0  0  0  0  0  0  0  0  0  0  0
   -0.8029   11.5945   -7.2007 C   0  0  0  0  0  0  0  0  0  0  0  0
    0.3904   14.5868   -5.9117 C   0  0  0  0  0  0  0  0  0  0  0  0
   -6.0966   12.3009   -9.8720 H   0  0  0  0  0  0  0  0  0  0  0  0
   -8.1900   10.1177  -13.8945 H   0  0  0  0  0  0  0  0  0  0  0  0
   -6.8945   12.2471  -14.0936 H   0  0  0  0  0  0  0  0  0  0  0  0
   -8.6289    7.9682   -9.4428 H   0  0  0  0  0  0  0  0  0  0  0  0
   -8.0374    9.6016   -7.2571 H   0  0  0  0  0  0  0  0  0  0  0  0
   -3.8852   12.7923  -11.7846 H   0  0  0  0  0  0  0  0  0  0  0  0
   -2.5387   14.5023  -10.9550 H   0  0  0  0  0  0  0  0  0  0  0  0
   -3.0724   14.8267  -12.6391 H   0  0  0  0  0  0  0  0  0  0  0  0
   -3.8811   15.6547  -11.2654 H   0  0  0  0  0  0  0  0  0  0  0  0
   -5.2461   15.2234  -12.9243 H   0  0  0  0  0  0  0  0  0  0  0  0
   -4.8927    8.7823   -8.4965 H   0  0  0  0  0  0  0  0  0  0  0  0
   -2.6613    9.7546   -8.0533 H   0  0  0  0  0  0  0  0  0  0  0  0
   -4.5126   13.2851   -6.4732 H   0  0  0  0  0  0  0  0  0  0  0  0
   -6.7407   12.3097   -6.9056 H   0  0  0  0  0  0  0  0  0  0  0  0
   -2.4554   14.1894   -6.1228 H   0  0  0  0  0  0  0  0  0  0  0  0
   -0.6455   10.6177   -7.6337 H   0  0  0  0  0  0  0  0  0  0  0  0
    1.4543   14.3214   -5.9997 H   0  0  0  0  0  0  0  0  0  0  0  0
    0.1843   15.4810   -6.5183 H   0  0  0  0  0  0  0  0  0  0  0  0
    0.1504   14.7949   -4.8586 H   0  0  0  0  0  0  0  0  0  0  0  0
  1  2  1  0  0  0  0
  1  4  1  0  0  0  0
  1 13  2  3  0  0  0
  2  6  2  0  0  0  0
  3  4  2  0  0  0  0
  3  5  1  0  0  0  0
  5  6  1  0  0  0  0
  5  9  2  0  0  0  0
  6  7  1  0  0  0  0
  7  8  1  0  0  0  0
  7 10  2  3  0  0  0
  8  9  1  0  0  0  0
 10 15  1  0  0  0  0
 11 12  1  0  0  0  0
 11 13  1  0  0  0  0
 13 14  1  0  0  0  0
 15 16  2  0  0  0  0
 15 20  1  0  0  0  0
 16 17  1  0  0  0  0
 17 18  2  0  0  0  0
 18 19  1  0  0  0  0
 18 21  1  0  0  0  0
 19 20  2  0  0  0  0
 21 22  2  0  0  0  0
 21 25  1  0  0  0  0
 22 23  1  0  0  0  0
 23 24  1  0  0  0  0
 23 26  1  0  0  0  0
 24 25  2  0  0  0  0
  2 27  1  0  0  0  0
  3 28  1  0  0  0  0
  4 29  1  0  0  0  0
  8 30  1  0  0  0  0
 10 31  1  0  0  0  0
 11 32  1  0  0  0  0
 12 33  1  0  0  0  0
 12 34  1  0  0  0  0
 12 35  1  0  0  0  0
 14 36  1  0  0  0  0
 16 37  1  0  0  0  0
 17 38  1  0  0  0  0
 19 39  1  0  0  0  0
 20 40  1  0  0  0  0
 22 41  1  0  0  0  0
 25 42  1  0  0  0  0
 26 43  1  0  0  0  0
 26 44  1  0  0  0  0
 26 45  1  0  0  0  0
M  END
> <Name>
19

> <IC50[uM]>
0.015

$$$$
19
  -OEChem-05192314333D
 Structure written by MMmdl.
 45 48  0     1  0  0  0  0  0999 V2000
   -6.3863   12.3686  -12.0106 C   0  0  0  0  0  0  0  0  0  0  0  0
   -6.5303   11.8179  -10.7351 C   0  0  0  0  0  0  0  0  0  0  0  0
   -7.7274   10.5747  -13.0322 C   0  0  0  0  0  0  0  0  0  0  0  0
   -6.9939   11.7717  -13.1290 C   0  0  0  0  0  0  0  0  0  0  0  0
   -7.8233   10.0108  -11.7572 C   0  0  0  0  0  0  0  0  0  0  0  0
   -7.2504   10.6246  -10.6026 C   0  0  0  0  0  0  0  0  0  0  0  0
   -7.6148    9.7488   -9.5126 C   0  0  0  0  0  0  0  0  0  0  0  0
   -8.2772    8.7301   -9.9866 N   0  0  0  0  0  0  0  0  0  0  0  0
   -8.4133    8.8585  -11.2996 N   0  0  0  0  0  0  0  0  0  0  0  0
   -7.3367    9.8906   -8.0265 C   0  0  0  0  0  0  0  0  0  0  0  0
   -4.3739   13.6178  -11.5022 N   0  0  0  0  0  0  0  0  0  0  0  0
   -3.4056   14.7196  -11.5963 C   0  0  0  0  0  0  0  0  0  0  0  0
   -5.5407   13.6198  -12.1903 C   0  0  3  0  0  0  0  0  0  0  0  0
   -5.8948   14.5296  -12.9394 O   0  0  0  0  0  0  0  0  0  0  0  0
   -5.9610   10.4852   -7.7361 C   0  0  0  0  0  0  0  0  0  0  0  0
   -4.8098    9.7648   -8.0558 C   0  0  0  0  0  0  0  0  0  0  0  0
   -3.5520   10.3132   -7.8064 C   0  0  0  0  0  0  0  0  0  0  0  0
   -3.4430   11.5871   -7.2363 C   0  0  0  0  0  0  0  0  0  0  0  0
   -4.5944   12.3027   -6.9144 C   0  0  0  0  0  0  0  0  0  0  0  0
   -5.8504   11.7539   -7.1603 C   0  0  0  0  0  0  0  0  0  0  0  0
   -2.0991   12.1752   -6.9687 C   0  0  0  0  0  0  0  0  0  0  0  0
   -1.7663   13.4191   -6.4362 C   0  0  0  0  0  0  0  0  0  0  0  0
   -0.4291   13.4776   -6.3870 N   0  0  0  0  0  0  0  0  0  0  0  0
    0.1723   12.4029   -6.8190 N   0  0  0  0  0  0  0  0  0  0  0  0
   -0.8029   11.5945   -7.2007 C   0  0  0  0  0  0  0  0  0  0  0  0
    0.3904   14.5868   -5.9117 C   0  0  0  0  0  0  0  0  0  0  0  0
   -6.0966   12.3009   -9.8720 H   0  0  0  0  0  0  0  0  0  0  0  0
   -8.1900   10.1177  -13.8945 H   0  0  0  0  0  0  0  0  0  0  0  0
   -6.8945   12.2471  -14.0936 H   0  0  0  0  0  0  0  0  0  0  0  0
   -8.0374    9.6016   -7.2571 H   0  0  0  0  0  0  0  0  0  0  0  0
   -3.8852   12.7923  -11.7846 H   0  0  0  0  0  0  0  0  0  0  0  0
   -2.5387   14.5023  -10.9550 H   0  0  0  0  0  0  0  0  0  0  0  0
   -3.0724   14.8267  -12.6391 H   0  0  0  0  0  0  0  0  0  0  0  0
   -3.8811   15.6547  -11.2654 H   0  0  0  0  0  0  0  0  0  0  0  0
   -6.0528   14.1002  -11.3436 H   0  0  0  0  0  0  0  0  0  0  0  0
   -5.2461   15.2234  -12.9243 H   0  0  0  0  0  0  0  0  0  0  0  0
   -4.8927    8.7823   -8.4965 H   0  0  0  0  0  0  0  0  0  0  0  0
   -2.6613    9.7546   -8.0533 H   0  0  0  0  0  0  0  0  0  0  0  0
   -4.5126   13.2851   -6.4732 H   0  0  0  0  0  0  0  0  0  0  0  0
   -6.7407   12.3097   -6.9056 H   0  0  0  0  0  0  0  0  0  0  0  0
   -2.4554   14.1894   -6.1228 H   0  0  0  0  0  0  0  0  0  0  0  0
   -0.6455   10.6177   -7.6337 H   0  0  0  0  0  0  0  0  0  0  0  0
    1.4543   14.3214   -5.9997 H   0  0  0  0  0  0  0  0  0  0  0  0
    0.1843   15.4810   -6.5183 H   0  0  0  0  0  0  0  0  0  0  0  0
    0.1504   14.7949   -4.8586 H   0  0  0  0  0  0  0  0  0  0  0  0
  1  2  2  0  0  0  0
  1  4  1  0  0  0  0
  1 13  1  0  0  0  0
  2  6  1  0  0  0  0
  3  4  2  0  0  0  0
  3  5  1  0  0  0  0
  5  6  2  0  0  0  0
  5  9  1  0  0  0  0
  6  7  1  0  0  0  0
  7  8  1  0  0  0  0
  7 10  2  3  0  0  0
  8  9  2  0  0  0  0
 10 15  1  0  0  0  0
 11 12  1  0  0  0  0
 11 13  1  0  0  0  0
 13 14  1  0  0  0  0
 15 16  2  0  0  0  0
 15 20  1  0  0  0  0
 16 17  1  0  0  0  0
 17 18  2  0  0  0  0
 18 19  1  0  0  0  0
 18 21  1  0  0  0  0
 19 20  2  0  0  0  0
 21 22  2  0  0  0  0
 21 25  1  0  0  0  0
 22 23  1  0  0  0  0
 23 24  1  0  0  0  0
 23 26  1  0  0  0  0
 24 25  2  0  0  0  0
  2 27  1  0  0  0  0
  3 28  1  0  0  0  0
  4 29  1  0  0  0  0
 10 30  1  0  0  0  0
 11 31  1  0  0  0  0
 12 32  1  0  0  0  0
 12 33  1  0  0  0  0
 12 34  1  0  0  0  0
 13 35  1  0  0  0  0
 14 36  1  0  0  0  0
 16 37  1  0  0  0  0
 17 38  1  0  0  0  0
 19 39  1  0  0  0  0
 20 40  1  0  0  0  0
 22 41  1  0  0  0  0
 25 42  1  0  0  0  0
 26 43  1  0  0  0  0
 26 44  1  0  0  0  0
 26 45  1  0  0  0  0
M  END
> <Name>
19

> <IC50[uM]>
0.015

$$$$
19
  -OEChem-05192314333D
 Structure written by MMmdl.
 45 48  0     0  0  0  0  0  0999 V2000
   -6.3863   12.3686  -12.0106 C   0  0  0  0  0  0  0  0  0  0  0  0
   -6.5303   11.8179  -10.7351 C   0  0  0  0  0  0  0  0  0  0  0  0
   -7.7274   10.5747  -13.0322 C   0  0  0  0  0  0  0  0  0  0  0  0
   -6.9939   11.7717  -13.1290 C   0  0  0  0  0  0  0  0  0  0  0  0
   -7.8233   10.0108  -11.7572 C   0  0  0  0  0  0  0  0  0  0  0  0
   -7.2504   10.6246  -10.6026 C   0  0  0  0  0  0  0  0  0  0  0  0
   -7.6148    9.7488   -9.5126 C   0  0  0  0  0  0  0  0  0  0  0  0
   -8.2772    8.7301   -9.9866 N   0  0  0  0  0  0  0  0  0  0  0  0
   -8.4133    8.8585  -11.2996 N   0  0  0  0  0  0  0  0  0  0  0  0
   -7.3367    9.8906   -8.0265 C   0  0  0  0  0  0  0  0  0  0  0  0
   -4.3739   13.6178  -11.5022 N   0  0  0  0  0  0  0  0  0  0  0  0
   -3.4056   14.7196  -11.5963 C   0  0  0  0  0  0  0  0  0  0  0  0
   -5.5407   13.6198  -12.1903 C   0  0  0  0  0  0  0  0  0  0  0  0
   -5.8948   14.5296  -12.9394 O   0  0  0  0  0  0  0  0  0  0  0  0
   -5.9610   10.4852   -7.7361 C   0  0  0  0  0  0  0  0  0  0  0  0
   -4.8098    9.7648   -8.0558 C   0  0  0  0  0  0  0  0  0  0  0  0
   -3.5520   10.3132   -7.8064 C   0  0  0  0  0  0  0  0  0  0  0  0
   -3.4430   11.5871   -7.2363 C   0  0  0  0  0  0  0  0  0  0  0  0
   -4.5944   12.3027   -6.9144 C   0  0  0  0  0  0  0  0  0  0  0  0
   -5.8504   11.7539   -7.1603 C   0  0  0  0  0  0  0  0  0  0  0  0
   -2.0991   12.1752   -6.9687 C   0  0  0  0  0  0  0  0  0  0  0  0
   -1.7663   13.4191   -6.4362 C   0  0  0  0  0  0  0  0  0  0  0  0
   -0.4291   13.4776   -6.3870 N   0  0  0  0  0  0  0  0  0  0  0  0
    0.1723   12.4029   -6.8190 N   0  0  0  0  0  0  0  0  0  0  0  0
   -0.8029   11.5945   -7.2007 C   0  0  0  0  0  0  0  0  0  0  0  0
    0.3904   14.5868   -5.9117 C   0  0  0  0  0  0  0  0  0  0  0  0
   -6.0966   12.3009   -9.8720 H   0  0  0  0  0  0  0  0  0  0  0  0
   -8.1900   10.1177  -13.8945 H   0  0  0  0  0  0  0  0  0  0  0  0
   -6.8945   12.2471  -14.0936 H   0  0  0  0  0  0  0  0  0  0  0  0
   -8.1028   10.5460   -7.5866 H   0  0  0  0  0  0  0  0  0  0  0  0
   -7.3947    8.8954   -7.5616 H   0  0  0  0  0  0  0  0  0  0  0  0
   -3.8852   12.7923  -11.7846 H   0  0  0  0  0  0  0  0  0  0  0  0
   -2.5387   14.5023  -10.9550 H   0  0  0  0  0  0  0  0  0  0  0  0
   -3.0724   14.8267  -12.6391 H   0  0  0  0  0  0  0  0  0  0  0  0
   -3.8811   15.6547  -11.2654 H   0  0  0  0  0  0  0  0  0  0  0  0
   -5.2461   15.2234  -12.9243 H   0  0  0  0  0  0  0  0  0  0  0  0
   -4.8927    8.7823   -8.4965 H   0  0  0  0  0  0  0  0  0  0  0  0
   -2.6613    9.7546   -8.0533 H   0  0  0  0  0  0  0  0  0  0  0  0
   -4.5126   13.2851   -6.4732 H   0  0  0  0  0  0  0  0  0  0  0  0
   -6.7407   12.3097   -6.9056 H   0  0  0  0  0  0  0  0  0  0  0  0
   -2.4554   14.1894   -6.1228 H   0  0  0  0  0  0  0  0  0  0  0  0
   -0.6455   10.6177   -7.6337 H   0  0  0  0  0  0  0  0  0  0  0  0
    1.4543   14.3214   -5.9997 H   0  0  0  0  0  0  0  0  0  0  0  0
    0.1843   15.4810   -6.5183 H   0  0  0  0  0  0  0  0  0  0  0  0
    0.1504   14.7949   -4.8586 H   0  0  0  0  0  0  0  0  0  0  0  0
  1  2  1  0  0  0  0
  1  4  1  0  0  0  0
  1 13  2  3  0  0  0
  2  6  2  0  0  0  0
  3  4  2  0  0  0  0
  3  5  1  0  0  0  0
  5  6  1  0  0  0  0
  5  9  2  0  0  0  0
  6  7  1  0  0  0  0
  7  8  2  0  0  0  0
  7 10  1  0  0  0  0
  8  9  1  0  0  0  0
 10 15  1  0  0  0  0
 11 12  1  0  0  0  0
 11 13  1  0  0  0  0
 13 14  1  0  0  0  0
 15 16  2  0  0  0  0
 15 20  1  0  0  0  0
 16 17  1  0  0  0  0
 17 18  2  0  0  0  0
 18 19  1  0  0  0  0
 18 21  1  0  0  0  0
 19 20  2  0  0  0  0
 21 22  2  0  0  0  0
 21 25  1  0  0  0  0
 22 23  1  0  0  0  0
 23 24  1  0  0  0  0
 23 26  1  0  0  0  0
 24 25  2  0  0  0  0
  2 27  1  0  0  0  0
  3 28  1  0  0  0  0
  4 29  1  0  0  0  0
 10 30  1  0  0  0  0
 10 31  1  0  0  0  0
 11 32  1  0  0  0  0
 12 33  1  0  0  0  0
 12 34  1  0  0  0  0
 12 35  1  0  0  0  0
 14 36  1  0  0  0  0
 16 37  1  0  0  0  0
 17 38  1  0  0  0  0
 19 39  1  0  0  0  0
 20 40  1  0  0  0  0
 22 41  1  0  0  0  0
 25 42  1  0  0  0  0
 26 43  1  0  0  0  0
 26 44  1  0  0  0  0
 26 45  1  0  0  0  0
M  END
> <Name>
19

> <IC50[uM]>
0.015

$$$$
19
  -OEChem-05192314333D
 Structure written by MMmdl.
 45 48  0     1  0  0  0  0  0999 V2000
   -6.3863   12.3686  -12.0106 C   0  0  0  0  0  0  0  0  0  0  0  0
   -6.5303   11.8179  -10.7351 C   0  0  0  0  0  0  0  0  0  0  0  0
   -7.7274   10.5747  -13.0322 C   0  0  0  0  0  0  0  0  0  0  0  0
   -6.9939   11.7717  -13.1290 C   0  0  0  0  0  0  0  0  0  0  0  0
   -7.8233   10.0108  -11.7572 C   0  0  0  0  0  0  0  0  0  0  0  0
   -7.2504   10.6246  -10.6026 C   0  0  0  0  0  0  0  0  0  0  0  0
   -7.6148    9.7488   -9.5126 C   0  0  0  0  0  0  0  0  0  0  0  0
   -8.2772    8.7301   -9.9866 N   0  0  0  0  0  0  0  0  0  0  0  0
   -8.4133    8.8585  -11.2996 N   0  0  0  0  0  0  0  0  0  0  0  0
   -7.3367    9.8906   -8.0265 C   0  0  0  0  0  0  0  0  0  0  0  0
   -4.3739   13.6178  -11.5022 N   0  0  0  0  0  0  0  0  0  0  0  0
   -3.4056   14.7196  -11.5963 C   0  0  0  0  0  0  0  0  0  0  0  0
   -5.5407   13.6198  -12.1903 C   0  0  0  0  0  0  0  0  0  0  0  0
   -5.8948   14.5296  -12.9394 O   0  0  0  0  0  0  0  0  0  0  0  0
   -5.9610   10.4852   -7.7361 C   0  0  0  0  0  0  0  0  0  0  0  0
   -4.8098    9.7648   -8.0558 C   0  0  0  0  0  0  0  0  0  0  0  0
   -3.5520   10.3132   -7.8064 C   0  0  0  0  0  0  0  0  0  0  0  0
   -3.4430   11.5871   -7.2363 C   0  0  0  0  0  0  0  0  0  0  0  0
   -4.5944   12.3027   -6.9144 C   0  0  0  0  0  0  0  0  0  0  0  0
   -5.8504   11.7539   -7.1603 C   0  0  0  0  0  0  0  0  0  0  0  0
   -2.0991   12.1752   -6.9687 C   0  0  0  0  0  0  0  0  0  0  0  0
   -1.7663   13.4191   -6.4362 C   0  0  0  0  0  0  0  0  0  0  0  0
   -0.4291   13.4776   -6.3870 N   0  0  3  0  0  0  0  0  0  0  0  0
    0.1723   12.4029   -6.8190 N   0  0  0  0  0  0  0  0  0  0  0  0
   -0.8029   11.5945   -7.2007 C   0  0  0  0  0  0  0  0  0  0  0  0
    0.3904   14.5868   -5.9117 C   0  0  0  0  0  0  0  0  0  0  0  0
   -6.0966   12.3009   -9.8720 H   0  0  0  0  0  0  0  0  0  0  0  0
   -8.1900   10.1177  -13.8945 H   0  0  0  0  0  0  0  0  0  0  0  0
   -6.8945   12.2471  -14.0936 H   0  0  0  0  0  0  0  0  0  0  0  0
   -8.0374    9.6016   -7.2571 H   0  0  0  0  0  0  0  0  0  0  0  0
   -3.8852   12.7923  -11.7846 H   0  0  0  0  0  0  0  0  0  0  0  0
   -2.5387   14.5023  -10.9550 H   0  0  0  0  0  0  0  0  0  0  0  0
   -3.0724   14.8267  -12.6391 H   0  0  0  0  0  0  0  0  0  0  0  0
   -3.8811   15.6547  -11.2654 H   0  0  0  0  0  0  0  0  0  0  0  0
   -5.2461   15.2234  -12.9243 H   0  0  0  0  0  0  0  0  0  0  0  0
   -4.8927    8.7823   -8.4965 H   0  0  0  0  0  0  0  0  0  0  0  0
   -2.6613    9.7546   -8.0533 H   0  0  0  0  0  0  0  0  0  0  0  0
   -4.5126   13.2851   -6.4732 H   0  0  0  0  0  0  0  0  0  0  0  0
   -6.7407   12.3097   -6.9056 H   0  0  0  0  0  0  0  0  0  0  0  0
   -2.1564   14.2220   -7.0789 H   0  0  0  0  0  0  0  0  0  0  0  0
   -2.1866   13.5221   -5.4249 H   0  0  0  0  0  0  0  0  0  0  0  0
   -0.6455   10.6177   -7.6337 H   0  0  0  0  0  0  0  0  0  0  0  0
    1.4543   14.3214   -5.9997 H   0  0  0  0  0  0  0  0  0  0  0  0
    0.1843   15.4810   -6.5183 H   0  0  0  0  0  0  0  0  0  0  0  0
    0.1504   14.7949   -4.8586 H   0  0  0  0  0  0  0  0  0  0  0  0
  1  2  1  0  0  0  0
  1  4  1  0  0  0  0
  1 13  2  3  0  0  0
  2  6  2  0  0  0  0
  3  4  2  0  0  0  0
  3  5  1  0  0  0  0
  5  6  1  0  0  0  0
  5  9  2  0  0  0  0
  6  7  1  0  0  0  0
  7  8  2  0  0  0  0
  7 10  1  0  0  0  0
  8  9  1  0  0  0  0
 10 15  2  0  0  0  0
 11 12  1  0  0  0  0
 11 13  1  0  0  0  0
 13 14  1  0  0  0  0
 15 16  1  0  0  0  0
 15 20  1  0  0  0  0
 16 17  2  0  0  0  0
 17 18  1  0  0  0  0
 18 19  1  0  0  0  0
 18 21  2  0  0  0  0
 19 20  2  0  0  0  0
 21 22  1  0  0  0  0
 21 25  1  0  0  0  0
 22 23  1  0  0  0  0
 23 24  1  0  0  0  0
 23 26  1  0  0  0  0
 24 25  2  0  0  0  0
  2 27  1  0  0  0  0
  3 28  1  0  0  0  0
  4 29  1  0  0  0  0
 10 30  1  0  0  0  0
 11 31  1  0  0  0  0
 12 32  1  0  0  0  0
 12 33  1  0  0  0  0
 12 34  1  0  0  0  0
 14 35  1  0  0  0  0
 16 36  1  0  0  0  0
 17 37  1  0  0  0  0
 19 38  1  0  0  0  0
 20 39  1  0  0  0  0
 22 40  1  0  0  0  0
 22 41  1  0  0  0  0
 25 42  1  0  0  0  0
 26 43  1  0  0  0  0
 26 44  1  0  0  0  0
 26 45  1  0  0  0  0
M  END
> <Name>
19

> <IC50[uM]>
0.015

$$$$
19
  -OEChem-05192314333D
 Structure written by MMmdl.
 45 48  0     1  0  0  0  0  0999 V2000
   -6.3863   12.3686  -12.0106 C   0  0  0  0  0  0  0  0  0  0  0  0
   -6.5303   11.8179  -10.7351 C   0  0  0  0  0  0  0  0  0  0  0  0
   -7.7274   10.5747  -13.0322 C   0  0  0  0  0  0  0  0  0  0  0  0
   -6.9939   11.7717  -13.1290 C   0  0  0  0  0  0  0  0  0  0  0  0
   -7.8233   10.0108  -11.7572 C   0  0  3  0  0  0  0  0  0  0  0  0
   -7.2504   10.6246  -10.6026 C   0  0  0  0  0  0  0  0  0  0  0  0
   -7.6148    9.7488   -9.5126 C   0  0  0  0  0  0  0  0  0  0  0  0
   -8.2772    8.7301   -9.9866 N   0  0  0  0  0  0  0  0  0  0  0  0
   -8.4133    8.8585  -11.2996 N   0  0  0  0  0  0  0  0  0  0  0  0
   -7.3367    9.8906   -8.0265 C   0  0  0  0  0  0  0  0  0  0  0  0
   -4.3739   13.6178  -11.5022 N   0  0  0  0  0  0  0  0  0  0  0  0
   -3.4056   14.7196  -11.5963 C   0  0  0  0  0  0  0  0  0  0  0  0
   -5.5407   13.6198  -12.1903 C   0  0  0  0  0  0  0  0  0  0  0  0
   -5.8948   14.5296  -12.9394 O   0  0  0  0  0  0  0  0  0  0  0  0
   -5.9610   10.4852   -7.7361 C   0  0  0  0  0  0  0  0  0  0  0  0
   -4.8098    9.7648   -8.0558 C   0  0  0  0  0  0  0  0  0  0  0  0
   -3.5520   10.3132   -7.8064 C   0  0  0  0  0  0  0  0  0  0  0  0
   -3.4430   11.5871   -7.2363 C   0  0  0  0  0  0  0  0  0  0  0  0
   -4.5944   12.3027   -6.9144 C   0  0  0  0  0  0  0  0  0  0  0  0
   -5.8504   11.7539   -7.1603 C   0  0  0  0  0  0  0  0  0  0  0  0
   -2.0991   12.1752   -6.9687 C   0  0  0  0  0  0  0  0  0  0  0  0
   -1.7663   13.4191   -6.4362 C   0  0  0  0  0  0  0  0  0  0  0  0
   -0.4291   13.4776   -6.3870 N   0  0  0  0  0  0  0  0  0  0  0  0
    0.1723   12.4029   -6.8190 N   0  0  0  0  0  0  0  0  0  0  0  0
   -0.8029   11.5945   -7.2007 C   0  0  0  0  0  0  0  0  0  0  0  0
    0.3904   14.5868   -5.9117 C   0  0  0  0  0  0  0  0  0  0  0  0
   -6.0966   12.3009   -9.8720 H   0  0  0  0  0  0  0  0  0  0  0  0
   -8.1900   10.1177  -13.8945 H   0  0  0  0  0  0  0  0  0  0  0  0
   -6.8945   12.2471  -14.0936 H   0  0  0  0  0  0  0  0  0  0  0  0
   -8.7607   10.5598  -11.5844 H   0  0  0  0  0  0  0  0  0  0  0  0
   -8.0374    9.6016   -7.2571 H   0  0  0  0  0  0  0  0  0  0  0  0
   -3.8852   12.7923  -11.7846 H   0  0  0  0  0  0  0  0  0  0  0  0
   -2.5387   14.5023  -10.9550 H   0  0  0  0  0  0  0  0  0  0  0  0
   -3.0724   14.8267  -12.6391 H   0  0  0  0  0  0  0  0  0  0  0  0
   -3.8811   15.6547  -11.2654 H   0  0  0  0  0  0  0  0  0  0  0  0
   -5.2461   15.2234  -12.9243 H   0  0  0  0  0  0  0  0  0  0  0  0
   -4.8927    8.7823   -8.4965 H   0  0  0  0  0  0  0  0  0  0  0  0
   -2.6613    9.7546   -8.0533 H   0  0  0  0  0  0  0  0  0  0  0  0
   -4.5126   13.2851   -6.4732 H   0  0  0  0  0  0  0  0  0  0  0  0
   -6.7407   12.3097   -6.9056 H   0  0  0  0  0  0  0  0  0  0  0  0
   -2.4554   14.1894   -6.1228 H   0  0  0  0  0  0  0  0  0  0  0  0
   -0.6455   10.6177   -7.6337 H   0  0  0  0  0  0  0  0  0  0  0  0
    1.4543   14.3214   -5.9997 H   0  0  0  0  0  0  0  0  0  0  0  0
    0.1843   15.4810   -6.5183 H   0  0  0  0  0  0  0  0  0  0  0  0
    0.1504   14.7949   -4.8586 H   0  0  0  0  0  0  0  0  0  0  0  0
  1  2  1  0  0  0  0
  1  4  1  0  0  0  0
  1 13  2  3  0  0  0
  2  6  2  0  0  0  0
  3  4  2  0  0  0  0
  3  5  1  0  0  0  0
  5  6  1  0  0  0  0
  5  9  1  0  0  0  0
  6  7  1  0  0  0  0
  7  8  1  0  0  0  0
  7 10  2  3  0  0  0
  8  9  2  0  0  0  0
 10 15  1  0  0  0  0
 11 12  1  0  0  0  0
 11 13  1  0  0  0  0
 13 14  1  0  0  0  0
 15 16  2  0  0  0  0
 15 20  1  0  0  0  0
 16 17  1  0  0  0  0
 17 18  2  0  0  0  0
 18 19  1  0  0  0  0
 18 21  1  0  0  0  0
 19 20  2  0  0  0  0
 21 22  2  0  0  0  0
 21 25  1  0  0  0  0
 22 23  1  0  0  0  0
 23 24  1  0  0  0  0
 23 26  1  0  0  0  0
 24 25  2  0  0  0  0
  2 27  1  0  0  0  0
  3 28  1  0  0  0  0
  4 29  1  0  0  0  0
  5 30  1  0  0  0  0
 10 31  1  0  0  0  0
 11 32  1  0  0  0  0
 12 33  1  0  0  0  0
 12 34  1  0  0  0  0
 12 35  1  0  0  0  0
 14 36  1  0  0  0  0
 16 37  1  0  0  0  0
 17 38  1  0  0  0  0
 19 39  1  0  0  0  0
 20 40  1  0  0  0  0
 22 41  1  0  0  0  0
 25 42  1  0  0  0  0
 26 43  1  0  0  0  0
 26 44  1  0  0  0  0
 26 45  1  0  0  0  0
M  END
> <Name>
19

> <IC50[uM]>
0.015

$$$$
19
  -OEChem-05192314333D
 Structure written by MMmdl.
 45 48  0     0  0  0  0  0  0999 V2000
   -6.3863   12.3686  -12.0106 C   0  0  0  0  0  0  0  0  0  0  0  0
   -6.5303   11.8179  -10.7351 C   0  0  0  0  0  0  0  0  0  0  0  0
   -7.7274   10.5747  -13.0322 C   0  0  0  0  0  0  0  0  0  0  0  0
   -6.9939   11.7717  -13.1290 C   0  0  0  0  0  0  0  0  0  0  0  0
   -7.8233   10.0108  -11.7572 C   0  0  0  0  0  0  0  0  0  0  0  0
   -7.2504   10.6246  -10.6026 C   0  0  0  0  0  0  0  0  0  0  0  0
   -7.6148    9.7488   -9.5126 C   0  0  0  0  0  0  0  0  0  0  0  0
   -8.2772    8.7301   -9.9866 N   0  0  0  0  0  0  0  0  0  0  0  0
   -8.4133    8.8585  -11.2996 N   0  0  0  0  0  0  0  0  0  0  0  0
   -7.3367    9.8906   -8.0265 C   0  0  0  0  0  0  0  0  0  0  0  0
   -4.3739   13.6178  -11.5022 N   0  0  0  0  0  0  0  0  0  0  0  0
   -3.4056   14.7196  -11.5963 C   0  0  0  0  0  0  0  0  0  0  0  0
   -5.5407   13.6198  -12.1903 C   0  0  0  0  0  0  0  0  0  0  0  0
   -5.8948   14.5296  -12.9394 O   0  0  0  0  0  0  0  0  0  0  0  0
   -5.9610   10.4852   -7.7361 C   0  0  0  0  0  0  0  0  0  0  0  0
   -4.8098    9.7648   -8.0558 C   0  0  0  0  0  0  0  0  0  0  0  0
   -3.5520   10.3132   -7.8064 C   0  0  0  0  0  0  0  0  0  0  0  0
   -3.4430   11.5871   -7.2363 C   0  0  0  0  0  0  0  0  0  0  0  0
   -4.5944   12.3027   -6.9144 C   0  0  0  0  0  0  0  0  0  0  0  0
   -5.8504   11.7539   -7.1603 C   0  0  0  0  0  0  0  0  0  0  0  0
   -2.0991   12.1752   -6.9687 C   0  0  0  0  0  0  0  0  0  0  0  0
   -1.7663   13.4191   -6.4362 C   0  0  0  0  0  0  0  0  0  0  0  0
   -0.4291   13.4776   -6.3870 N   0  0  0  0  0  0  0  0  0  0  0  0
    0.1723   12.4029   -6.8190 N   0  0  0  0  0  0  0  0  0  0  0  0
   -0.8029   11.5945   -7.2007 C   0  0  0  0  0  0  0  0  0  0  0  0
    0.3904   14.5868   -5.9117 C   0  0  0  0  0  0  0  0  0  0  0  0
   -6.0966   12.3009   -9.8720 H   0  0  0  0  0  0  0  0  0  0  0  0
   -8.1900   10.1177  -13.8945 H   0  0  0  0  0  0  0  0  0  0  0  0
   -7.6841   12.5226  -13.5411 H   0  0  0  0  0  0  0  0  0  0  0  0
   -6.1868   11.5800  -13.8514 H   0  0  0  0  0  0  0  0  0  0  0  0
   -8.0374    9.6016   -7.2571 H   0  0  0  0  0  0  0  0  0  0  0  0
   -3.8852   12.7923  -11.7846 H   0  0  0  0  0  0  0  0  0  0  0  0
   -2.5387   14.5023  -10.9550 H   0  0  0  0  0  0  0  0  0  0  0  0
   -3.0724   14.8267  -12.6391 H   0  0  0  0  0  0  0  0  0  0  0  0
   -3.8811   15.6547  -11.2654 H   0  0  0  0  0  0  0  0  0  0  0  0
   -5.2461   15.2234  -12.9243 H   0  0  0  0  0  0  0  0  0  0  0  0
   -4.8927    8.7823   -8.4965 H   0  0  0  0  0  0  0  0  0  0  0  0
   -2.6613    9.7546   -8.0533 H   0  0  0  0  0  0  0  0  0  0  0  0
   -4.5126   13.2851   -6.4732 H   0  0  0  0  0  0  0  0  0  0  0  0
   -6.7407   12.3097   -6.9056 H   0  0  0  0  0  0  0  0  0  0  0  0
   -2.4554   14.1894   -6.1228 H   0  0  0  0  0  0  0  0  0  0  0  0
   -0.6455   10.6177   -7.6337 H   0  0  0  0  0  0  0  0  0  0  0  0
    1.4543   14.3214   -5.9997 H   0  0  0  0  0  0  0  0  0  0  0  0
    0.1843   15.4810   -6.5183 H   0  0  0  0  0  0  0  0  0  0  0  0
    0.1504   14.7949   -4.8586 H   0  0  0  0  0  0  0  0  0  0  0  0
  1  2  1  0  0  0  0
  1  4  1  0  0  0  0
  1 13  2  3  0  0  0
  2  6  2  0  0  0  0
  3  4  1  0  0  0  0
  3  5  2  0  0  0  0
  5  6  1  0  0  0  0
  5  9  1  0  0  0  0
  6  7  1  0  0  0  0
  7  8  1  0  0  0  0
  7 10  2  3  0  0  0
  8  9  2  0  0  0  0
 10 15  1  0  0  0  0
 11 12  1  0  0  0  0
 11 13  1  0  0  0  0
 13 14  1  0  0  0  0
 15 16  2  0  0  0  0
 15 20  1  0  0  0  0
 16 17  1  0  0  0  0
 17 18  2  0  0  0  0
 18 19  1  0  0  0  0
 18 21  1  0  0  0  0
 19 20  2  0  0  0  0
 21 22  2  0  0  0  0
 21 25  1  0  0  0  0
 22 23  1  0  0  0  0
 23 24  1  0  0  0  0
 23 26  1  0  0  0  0
 24 25  2  0  0  0  0
  2 27  1  0  0  0  0
  3 28  1  0  0  0  0
  4 29  1  0  0  0  0
  4 30  1  0  0  0  0
 10 31  1  0  0  0  0
 11 32  1  0  0  0  0
 12 33  1  0  0  0  0
 12 34  1  0  0  0  0
 12 35  1  0  0  0  0
 14 36  1  0  0  0  0
 16 37  1  0  0  0  0
 17 38  1  0  0  0  0
 19 39  1  0  0  0  0
 20 40  1  0  0  0  0
 22 41  1  0  0  0  0
 25 42  1  0  0  0  0
 26 43  1  0  0  0  0
 26 44  1  0  0  0  0
 26 45  1  0  0  0  0
M  END
> <Name>
19

> <IC50[uM]>
0.015

$$$$
19
  -OEChem-05192314333D
 Structure written by MMmdl.
 45 48  0     0  0  0  0  0  0999 V2000
   -6.3863   12.3686  -12.0106 C   0  0  0  0  0  0  0  0  0  0  0  0
   -6.5303   11.8179  -10.7351 C   0  0  0  0  0  0  0  0  0  0  0  0
   -7.7274   10.5747  -13.0322 C   0  0  0  0  0  0  0  0  0  0  0  0
   -6.9939   11.7717  -13.1290 C   0  0  0  0  0  0  0  0  0  0  0  0
   -7.8233   10.0108  -11.7572 C   0  0  0  0  0  0  0  0  0  0  0  0
   -7.2504   10.6246  -10.6026 C   0  0  0  0  0  0  0  0  0  0  0  0
   -7.6148    9.7488   -9.5126 C   0  0  0  0  0  0  0  0  0  0  0  0
   -8.2772    8.7301   -9.9866 N   0  0  0  0  0  0  0  0  0  0  0  0
   -8.4133    8.8585  -11.2996 N   0  0  0  0  0  0  0  0  0  0  0  0
   -7.3367    9.8906   -8.0265 C   0  0  0  0  0  0  0  0  0  0  0  0
   -4.3739   13.6178  -11.5022 N   0  0  0  0  0  0  0  0  0  0  0  0
   -3.4056   14.7196  -11.5963 C   0  0  0  0  0  0  0  0  0  0  0  0
   -5.5407   13.6198  -12.1903 C   0  0  0  0  0  0  0  0  0  0  0  0
   -5.8948   14.5296  -12.9394 O   0  0  0  0  0  0  0  0  0  0  0  0
   -5.9610   10.4852   -7.7361 C   0  0  0  0  0  0  0  0  0  0  0  0
   -4.8098    9.7648   -8.0558 C   0  0  0  0  0  0  0  0  0  0  0  0
   -3.5520   10.3132   -7.8064 C   0  0  0  0  0  0  0  0  0  0  0  0
   -3.4430   11.5871   -7.2363 C   0  0  0  0  0  0  0  0  0  0  0  0
   -4.5944   12.3027   -6.9144 C   0  0  0  0  0  0  0  0  0  0  0  0
   -5.8504   11.7539   -7.1603 C   0  0  0  0  0  0  0  0  0  0  0  0
   -2.0991   12.1752   -6.9687 C   0  0  0  0  0  0  0  0  0  0  0  0
   -1.7663   13.4191   -6.4362 C   0  0  0  0  0  0  0  0  0  0  0  0
   -0.4291   13.4776   -6.3870 N   0  0  0  0  0  0  0  0  0  0  0  0
    0.1723   12.4029   -6.8190 N   0  0  0  0  0  0  0  0  0  0  0  0
   -0.8029   11.5945   -7.2007 C   0  0  0  0  0  0  0  0  0  0  0  0
    0.3904   14.5868   -5.9117 C   0  0  0  0  0  0  0  0  0  0  0  0
   -5.5187   11.6324  -10.3449 H   0  0  0  0  0  0  0  0  0  0  0  0
   -7.0319   12.5715  -10.1102 H   0  0  0  0  0  0  0  0  0  0  0  0
   -8.1900   10.1177  -13.8945 H   0  0  0  0  0  0  0  0  0  0  0  0
   -6.8945   12.2471  -14.0936 H   0  0  0  0  0  0  0  0  0  0  0  0
   -8.0374    9.6016   -7.2571 H   0  0  0  0  0  0  0  0  0  0  0  0
   -3.8852   12.7923  -11.7846 H   0  0  0  0  0  0  0  0  0  0  0  0
   -2.5387   14.5023  -10.9550 H   0  0  0  0  0  0  0  0  0  0  0  0
   -3.0724   14.8267  -12.6391 H   0  0  0  0  0  0  0  0  0  0  0  0
   -3.8811   15.6547  -11.2654 H   0  0  0  0  0  0  0  0  0  0  0  0
   -5.2461   15.2234  -12.9243 H   0  0  0  0  0  0  0  0  0  0  0  0
   -4.8927    8.7823   -8.4965 H   0  0  0  0  0  0  0  0  0  0  0  0
   -2.6613    9.7546   -8.0533 H   0  0  0  0  0  0  0  0  0  0  0  0
   -4.5126   13.2851   -6.4732 H   0  0  0  0  0  0  0  0  0  0  0  0
   -6.7407   12.3097   -6.9056 H   0  0  0  0  0  0  0  0  0  0  0  0
   -2.4554   14.1894   -6.1228 H   0  0  0  0  0  0  0  0  0  0  0  0
   -0.6455   10.6177   -7.6337 H   0  0  0  0  0  0  0  0  0  0  0  0
    1.4543   14.3214   -5.9997 H   0  0  0  0  0  0  0  0  0  0  0  0
    0.1843   15.4810   -6.5183 H   0  0  0  0  0  0  0  0  0  0  0  0
    0.1504   14.7949   -4.8586 H   0  0  0  0  0  0  0  0  0  0  0  0
  1  2  1  0  0  0  0
  1  4  1  0  0  0  0
  1 13  2  3  0  0  0
  2  6  1  0  0  0  0
  3  4  2  0  0  0  0
  3  5  1  0  0  0  0
  5  6  2  0  0  0  0
  5  9  1  0  0  0  0
  6  7  1  0  0  0  0
  7  8  1  0  0  0  0
  7 10  2  3  0  0  0
  8  9  2  0  0  0  0
 10 15  1  0  0  0  0
 11 12  1  0  0  0  0
 11 13  1  0  0  0  0
 13 14  1  0  0  0  0
 15 16  2  0  0  0  0
 15 20  1  0  0  0  0
 16 17  1  0  0  0  0
 17 18  2  0  0  0  0
 18 19  1  0  0  0  0
 18 21  1  0  0  0  0
 19 20  2  0  0  0  0
 21 22  2  0  0  0  0
 21 25  1  0  0  0  0
 22 23  1  0  0  0  0
 23 24  1  0  0  0  0
 23 26  1  0  0  0  0
 24 25  2  0  0  0  0
  2 27  1  0  0  0  0
  2 28  1  0  0  0  0
  3 29  1  0  0  0  0
  4 30  1  0  0  0  0
 10 31  1  0  0  0  0
 11 32  1  0  0  0  0
 12 33  1  0  0  0  0
 12 34  1  0  0  0  0
 12 35  1  0  0  0  0
 14 36  1  0  0  0  0
 16 37  1  0  0  0  0
 17 38  1  0  0  0  0
 19 39  1  0  0  0  0
 20 40  1  0  0  0  0
 22 41  1  0  0  0  0
 25 42  1  0  0  0  0
 26 43  1  0  0  0  0
 26 44  1  0  0  0  0
 26 45  1  0  0  0  0
M  END
> <Name>
19

> <IC50[uM]>
0.015

$$$$
19
  -OEChem-05192314333D
 Structure written by MMmdl.
 45 48  0     0  0  0  0  0  0999 V2000
   -6.3863   12.3686  -12.0106 C   0  0  0  0  0  0  0  0  0  0  0  0
   -6.5303   11.8179  -10.7351 C   0  0  0  0  0  0  0  0  0  0  0  0
   -7.7274   10.5747  -13.0322 C   0  0  0  0  0  0  0  0  0  0  0  0
   -6.9939   11.7717  -13.1290 C   0  0  0  0  0  0  0  0  0  0  0  0
   -7.8233   10.0108  -11.7572 C   0  0  0  0  0  0  0  0  0  0  0  0
   -7.2504   10.6246  -10.6026 C   0  0  0  0  0  0  0  0  0  0  0  0
   -7.6148    9.7488   -9.5126 C   0  0  0  0  0  0  0  0  0  0  0  0
   -8.2772    8.7301   -9.9866 N   0  0  0  0  0  0  0  0  0  0  0  0
   -8.4133    8.8585  -11.2996 N   0  0  0  0  0  0  0  0  0  0  0  0
   -7.3367    9.8906   -8.0265 C   0  0  0  0  0  0  0  0  0  0  0  0
   -4.3739   13.6178  -11.5022 N   0  0  0  0  0  0  0  0  0  0  0  0
   -3.4056   14.7196  -11.5963 C   0  0  0  0  0  0  0  0  0  0  0  0
   -5.5407   13.6198  -12.1903 C   0  0  0  0  0  0  0  0  0  0  0  0
   -5.8948   14.5296  -12.9394 O   0  0  0  0  0  0  0  0  0  0  0  0
   -5.9610   10.4852   -7.7361 C   0  0  0  0  0  0  0  0  0  0  0  0
   -4.8098    9.7648   -8.0558 C   0  0  0  0  0  0  0  0  0  0  0  0
   -3.5520   10.3132   -7.8064 C   0  0  0  0  0  0  0  0  0  0  0  0
   -3.4430   11.5871   -7.2363 C   0  0  0  0  0  0  0  0  0  0  0  0
   -4.5944   12.3027   -6.9144 C   0  0  0  0  0  0  0  0  0  0  0  0
   -5.8504   11.7539   -7.1603 C   0  0  0  0  0  0  0  0  0  0  0  0
   -2.0991   12.1752   -6.9687 C   0  0  0  0  0  0  0  0  0  0  0  0
   -1.7663   13.4191   -6.4362 C   0  0  0  0  0  0  0  0  0  0  0  0
   -0.4291   13.4776   -6.3870 N   0  0  0  0  0  0  0  0  0  0  0  0
    0.1723   12.4029   -6.8190 N   0  0  0  0  0  0  0  0  0  0  0  0
   -0.8029   11.5945   -7.2007 C   0  0  0  0  0  0  0  0  0  0  0  0
    0.3904   14.5868   -5.9117 C   0  0  0  0  0  0  0  0  0  0  0  0
   -6.0966   12.3009   -9.8720 H   0  0  0  0  0  0  0  0  0  0  0  0
   -8.1900   10.1177  -13.8945 H   0  0  0  0  0  0  0  0  0  0  0  0
   -6.8945   12.2471  -14.0936 H   0  0  0  0  0  0  0  0  0  0  0  0
   -8.0374    9.6016   -7.2571 H   0  0  0  0  0  0  0  0  0  0  0  0
   -3.8852   12.7923  -11.7846 H   0  0  0  0  0  0  0  0  0  0  0  0
   -2.5387   14.5023  -10.9550 H   0  0  0  0  0  0  0  0  0  0  0  0
   -3.0724   14.8267  -12.6391 H   0  0  0  0  0  0  0  0  0  0  0  0
   -3.8811   15.6547  -11.2654 H   0  0  0  0  0  0  0  0  0  0  0  0
   -5.2461   15.2234  -12.9243 H   0  0  0  0  0  0  0  0  0  0  0  0
   -4.8927    8.7823   -8.4965 H   0  0  0  0  0  0  0  0  0  0  0  0
   -2.6613    9.7546   -8.0533 H   0  0  0  0  0  0  0  0  0  0  0  0
   -3.4418   12.0376   -8.2398 H   0  0  0  0  0  0  0  0  0  0  0  0
   -4.5126   13.2851   -6.4732 H   0  0  0  0  0  0  0  0  0  0  0  0
   -6.7407   12.3097   -6.9056 H   0  0  0  0  0  0  0  0  0  0  0  0
   -2.4554   14.1894   -6.1228 H   0  0  0  0  0  0  0  0  0  0  0  0
   -0.6455   10.6177   -7.6337 H   0  0  0  0  0  0  0  0  0  0  0  0
    1.4543   14.3214   -5.9997 H   0  0  0  0  0  0  0  0  0  0  0  0
    0.1843   15.4810   -6.5183 H   0  0  0  0  0  0  0  0  0  0  0  0
    0.1504   14.7949   -4.8586 H   0  0  0  0  0  0  0  0  0  0  0  0
  1  2  1  0  0  0  0
  1  4  1  0  0  0  0
  1 13  2  3  0  0  0
  2  6  2  0  0  0  0
  3  4  2  0  0  0  0
  3  5  1  0  0  0  0
  5  6  1  0  0  0  0
  5  9  2  0  0  0  0
  6  7  1  0  0  0  0
  7  8  2  0  0  0  0
  7 10  1  0  0  0  0
  8  9  1  0  0  0  0
 10 15  2  0  0  0  0
 11 12  1  0  0  0  0
 11 13  1  0  0  0  0
 13 14  1  0  0  0  0
 15 16  1  0  0  0  0
 15 20  1  0  0  0  0
 16 17  2  0  0  0  0
 17 18  1  0  0  0  0
 18 19  1  0  0  0  0
 18 21  1  0  0  0  0
 19 20  2  0  0  0  0
 21 22  2  0  0  0  0
 21 25  1  0  0  0  0
 22 23  1  0  0  0  0
 23 24  1  0  0  0  0
 23 26  1  0  0  0  0
 24 25  2  0  0  0  0
  2 27  1  0  0  0  0
  3 28  1  0  0  0  0
  4 29  1  0  0  0  0
 10 30  1  0  0  0  0
 11 31  1  0  0  0  0
 12 32  1  0  0  0  0
 12 33  1  0  0  0  0
 12 34  1  0  0  0  0
 14 35  1  0  0  0  0
 16 36  1  0  0  0  0
 17 37  1  0  0  0  0
 18 38  1  0  0  0  0
 19 39  1  0  0  0  0
 20 40  1  0  0  0  0
 22 41  1  0  0  0  0
 25 42  1  0  0  0  0
 26 43  1  0  0  0  0
 26 44  1  0  0  0  0
 26 45  1  0  0  0  0
M  END
> <Name>
19

> <IC50[uM]>
0.015

$$$$
19
  -OEChem-05192314333D
 Structure written by MMmdl.
 45 48  0     0  0  0  0  0  0999 V2000
   -6.3863   12.3686  -12.0106 C   0  0  0  0  0  0  0  0  0  0  0  0
   -6.5303   11.8179  -10.7351 C   0  0  0  0  0  0  0  0  0  0  0  0
   -7.7274   10.5747  -13.0322 C   0  0  0  0  0  0  0  0  0  0  0  0
   -6.9939   11.7717  -13.1290 C   0  0  0  0  0  0  0  0  0  0  0  0
   -7.8233   10.0108  -11.7572 C   0  0  0  0  0  0  0  0  0  0  0  0
   -7.2504   10.6246  -10.6026 C   0  0  0  0  0  0  0  0  0  0  0  0
   -7.6148    9.7488   -9.5126 C   0  0  0  0  0  0  0  0  0  0  0  0
   -8.2772    8.7301   -9.9866 N   0  0  0  0  0  0  0  0  0  0  0  0
   -8.4133    8.8585  -11.2996 N   0  0  0  0  0  0  0  0  0  0  0  0
   -7.3367    9.8906   -8.0265 C   0  0  0  0  0  0  0  0  0  0  0  0
   -4.3739   13.6178  -11.5022 N   0  0  0  0  0  0  0  0  0  0  0  0
   -3.4056   14.7196  -11.5963 C   0  0  0  0  0  0  0  0  0  0  0  0
   -5.5407   13.6198  -12.1903 C   0  0  0  0  0  0  0  0  0  0  0  0
   -5.8948   14.5296  -12.9394 O   0  0  0  0  0  0  0  0  0  0  0  0
   -5.9610   10.4852   -7.7361 C   0  0  0  0  0  0  0  0  0  0  0  0
   -4.8098    9.7648   -8.0558 C   0  0  0  0  0  0  0  0  0  0  0  0
   -3.5520   10.3132   -7.8064 C   0  0  0  0  0  0  0  0  0  0  0  0
   -3.4430   11.5871   -7.2363 C   0  0  0  0  0  0  0  0  0  0  0  0
   -4.5944   12.3027   -6.9144 C   0  0  0  0  0  0  0  0  0  0  0  0
   -5.8504   11.7539   -7.1603 C   0  0  0  0  0  0  0  0  0  0  0  0
   -2.0991   12.1752   -6.9687 C   0  0  0  0  0  0  0  0  0  0  0  0
   -1.7663   13.4191   -6.4362 C   0  0  0  0  0  0  0  0  0  0  0  0
   -0.4291   13.4776   -6.3870 N   0  0  0  0  0  0  0  0  0  0  0  0
    0.1723   12.4029   -6.8190 N   0  0  0  0  0  0  0  0  0  0  0  0
   -0.8029   11.5945   -7.2007 C   0  0  0  0  0  0  0  0  0  0  0  0
    0.3904   14.5868   -5.9117 C   0  0  0  0  0  0  0  0  0  0  0  0
   -6.0966   12.3009   -9.8720 H   0  0  0  0  0  0  0  0  0  0  0  0
   -8.1900   10.1177  -13.8945 H   0  0  0  0  0  0  0  0  0  0  0  0
   -6.8945   12.2471  -14.0936 H   0  0  0  0  0  0  0  0  0  0  0  0
   -8.0374    9.6016   -7.2571 H   0  0  0  0  0  0  0  0  0  0  0  0
   -3.8852   12.7923  -11.7846 H   0  0  0  0  0  0  0  0  0  0  0  0
   -2.5387   14.5023  -10.9550 H   0  0  0  0  0  0  0  0  0  0  0  0
   -3.0724   14.8267  -12.6391 H   0  0  0  0  0  0  0  0  0  0  0  0
   -3.8811   15.6547  -11.2654 H   0  0  0  0  0  0  0  0  0  0  0  0
   -5.2461   15.2234  -12.9243 H   0  0  0  0  0  0  0  0  0  0  0  0
   -4.8927    8.7823   -8.4965 H   0  0  0  0  0  0  0  0  0  0  0  0
   -2.6613    9.7546   -8.0533 H   0  0  0  0  0  0  0  0  0  0  0  0
   -4.5126   13.2851   -6.4732 H   0  0  0  0  0  0  0  0  0  0  0  0
   -6.3761   12.4521   -7.8283 H   0  0  0  0  0  0  0  0  0  0  0  0
   -6.3718   11.7094   -6.1927 H   0  0  0  0  0  0  0  0  0  0  0  0
   -2.4554   14.1894   -6.1228 H   0  0  0  0  0  0  0  0  0  0  0  0
   -0.6455   10.6177   -7.6337 H   0  0  0  0  0  0  0  0  0  0  0  0
    1.4543   14.3214   -5.9997 H   0  0  0  0  0  0  0  0  0  0  0  0
    0.1843   15.4810   -6.5183 H   0  0  0  0  0  0  0  0  0  0  0  0
    0.1504   14.7949   -4.8586 H   0  0  0  0  0  0  0  0  0  0  0  0
  1  2  1  0  0  0  0
  1  4  1  0  0  0  0
  1 13  2  3  0  0  0
  2  6  2  0  0  0  0
  3  4  2  0  0  0  0
  3  5  1  0  0  0  0
  5  6  1  0  0  0  0
  5  9  2  0  0  0  0
  6  7  1  0  0  0  0
  7  8  2  0  0  0  0
  7 10  1  0  0  0  0
  8  9  1  0  0  0  0
 10 15  2  3  0  0  0
 11 12  1  0  0  0  0
 11 13  1  0  0  0  0
 13 14  1  0  0  0  0
 15 16  1  0  0  0  0
 15 20  1  0  0  0  0
 16 17  2  0  0  0  0
 17 18  1  0  0  0  0
 18 19  2  0  0  0  0
 18 21  1  0  0  0  0
 19 20  1  0  0  0  0
 21 22  2  0  0  0  0
 21 25  1  0  0  0  0
 22 23  1  0  0  0  0
 23 24  1  0  0  0  0
 23 26  1  0  0  0  0
 24 25  2  0  0  0  0
  2 27  1  0  0  0  0
  3 28  1  0  0  0  0
  4 29  1  0  0  0  0
 10 30  1  0  0  0  0
 11 31  1  0  0  0  0
 12 32  1  0  0  0  0
 12 33  1  0  0  0  0
 12 34  1  0  0  0  0
 14 35  1  0  0  0  0
 16 36  1  0  0  0  0
 17 37  1  0  0  0  0
 19 38  1  0  0  0  0
 20 39  1  0  0  0  0
 20 40  1  0  0  0  0
 22 41  1  0  0  0  0
 25 42  1  0  0  0  0
 26 43  1  0  0  0  0
 26 44  1  0  0  0  0
 26 45  1  0  0  0  0
M  END
> <Name>
19

> <IC50[uM]>
0.015

$$$$
