28
  -OEChem-05192314333D
 Structure written by MMmdl.
 51 55  0     0  0  0  0  0  0999 V2000
   -6.4084   12.3297  -11.9887 C   0  0  0  0  0  0  0  0  0  0  0  0
   -6.5165   11.7544  -10.7314 C   0  0  0  0  0  0  0  0  0  0  0  0
   -7.7418   10.5517  -13.0215 C   0  0  0  0  0  0  0  0  0  0  0  0
   -7.0245   11.7463  -13.1093 C   0  0  0  0  0  0  0  0  0  0  0  0
   -7.8268    9.9859  -11.7428 C   0  0  0  0  0  0  0  0  0  0  0  0
   -7.2396   10.5800  -10.6042 C   0  0  0  0  0  0  0  0  0  0  0  0
   -7.6095    9.7151   -9.5092 C   0  0  0  0  0  0  0  0  0  0  0  0
   -8.2849    8.7010   -9.9773 N   0  0  0  0  0  0  0  0  0  0  0  0
   -8.4373    8.8403  -11.2922 N   0  0  0  0  0  0  0  0  0  0  0  0
   -7.3311    9.8727   -8.0225 C   0  0  0  0  0  0  0  0  0  0  0  0
   -5.6734   13.4955  -12.1182 N   0  0  0  0  0  0  0  0  0  0  0  0
   -5.9616   10.4819   -7.7358 C   0  0  0  0  0  0  0  0  0  0  0  0
   -4.8034    9.7678   -8.0459 C   0  0  0  0  0  0  0  0  0  0  0  0
   -3.5615   10.3255   -7.7934 C   0  0  0  0  0  0  0  0  0  0  0  0
   -3.4526   11.6006   -7.2315 C   0  0  0  0  0  0  0  0  0  0  0  0
   -4.6161   12.3136   -6.9153 C   0  0  0  0  0  0  0  0  0  0  0  0
   -5.8662   11.7565   -7.1617 C   0  0  0  0  0  0  0  0  0  0  0  0
   -2.1079   12.1894   -6.9634 C   0  0  0  0  0  0  0  0  0  0  0  0
   -1.7834   13.4363   -6.4469 C   0  0  0  0  0  0  0  0  0  0  0  0
   -0.4443   13.4911   -6.3955 N   0  0  0  0  0  0  0  0  0  0  0  0
    0.1636   12.4174   -6.8067 N   0  0  0  0  0  0  0  0  0  0  0  0
   -0.8107   11.6018   -7.1804 C   0  0  0  0  0  0  0  0  0  0  0  0
    0.3735   14.6113   -5.9298 C   0  0  0  0  0  0  0  0  0  0  0  0
   -5.8857   14.5071  -13.1620 C   0  0  0  0  0  0  0  0  0  0  0  0
   -4.6042   14.8313  -13.9092 C   0  0  0  0  0  0  0  0  0  0  0  0
   -3.6374   15.2080  -12.9343 O   0  0  0  0  0  0  0  0  0  0  0  0
   -3.2854   14.1223  -12.1198 C   0  0  0  0  0  0  0  0  0  0  0  0
   -4.5109   13.8217  -11.2574 C   0  0  0  0  0  0  0  0  0  0  0  0
   -6.0481   12.2112   -9.8721 H   0  0  0  0  0  0  0  0  0  0  0  0
   -8.2018   10.0931  -13.8843 H   0  0  0  0  0  0  0  0  0  0  0  0
   -6.9404   12.2372  -14.0676 H   0  0  0  0  0  0  0  0  0  0  0  0
   -8.6336    7.9382   -9.4328 H   0  0  0  0  0  0  0  0  0  0  0  0
   -8.1032   10.5248   -7.5881 H   0  0  0  0  0  0  0  0  0  0  0  0
   -7.3800    8.8809   -7.5492 H   0  0  0  0  0  0  0  0  0  0  0  0
   -4.8756    8.7823   -8.4819 H   0  0  0  0  0  0  0  0  0  0  0  0
   -2.6674    9.7693   -8.0332 H   0  0  0  0  0  0  0  0  0  0  0  0
   -4.5421   13.2987   -6.4789 H   0  0  0  0  0  0  0  0  0  0  0  0
   -6.7619   12.3053   -6.9110 H   0  0  0  0  0  0  0  0  0  0  0  0
   -2.4737   14.2103   -6.1456 H   0  0  0  0  0  0  0  0  0  0  0  0
   -0.6522   10.6178   -7.5964 H   0  0  0  0  0  0  0  0  0  0  0  0
    1.4382   14.3462   -6.0082 H   0  0  0  0  0  0  0  0  0  0  0  0
    0.1696   15.4967   -6.5499 H   0  0  0  0  0  0  0  0  0  0  0  0
    0.1274   14.8336   -4.8810 H   0  0  0  0  0  0  0  0  0  0  0  0
   -6.6284   14.1271  -13.8790 H   0  0  0  0  0  0  0  0  0  0  0  0
   -6.2658   15.4268  -12.6932 H   0  0  0  0  0  0  0  0  0  0  0  0
   -4.2565   13.9474  -14.4640 H   0  0  0  0  0  0  0  0  0  0  0  0
   -4.7758   15.6607  -14.6111 H   0  0  0  0  0  0  0  0  0  0  0  0
   -3.0304   13.2488  -12.7378 H   0  0  0  0  0  0  0  0  0  0  0  0
   -2.4269   14.3849  -11.4842 H   0  0  0  0  0  0  0  0  0  0  0  0
   -4.7488   14.7031  -10.6438 H   0  0  0  0  0  0  0  0  0  0  0  0
   -4.2928   12.9662  -10.6013 H   0  0  0  0  0  0  0  0  0  0  0  0
  1  2  2  0  0  0  0
  1  4  1  0  0  0  0
  1 11  1  0  0  0  0
  2  6  1  0  0  0  0
  3  4  2  0  0  0  0
  3  5  1  0  0  0  0
  5  6  1  0  0  0  0
  5  9  2  0  0  0  0
  6  7  2  0  0  0  0
  7  8  1  0  0  0  0
  7 10  1  0  0  0  0
  8  9  1  0  0  0  0
 10 12  1  0  0  0  0
 11 24  1  0  0  0  0
 11 28  1  0  0  0  0
 12 13  2  0  0  0  0
 12 17  1  0  0  0  0
 13 14  1  0  0  0  0
 14 15  2  0  0  0  0
 15 16  1  0  0  0  0
 15 18  1  0  0  0  0
 16 17  2  0  0  0  0
 18 19  2  0  0  0  0
 18 22  1  0  0  0  0
 19 20  1  0  0  0  0
 20 21  1  0  0  0  0
 20 23  1  0  0  0  0
 21 22  2  0  0  0  0
 24 25  1  0  0  0  0
 25 26  1  0  0  0  0
 26 27  1  0  0  0  0
 27 28  1  0  0  0  0
  2 29  1  0  0  0  0
  3 30  1  0  0  0  0
  4 31  1  0  0  0  0
  8 32  1  0  0  0  0
 10 33  1  0  0  0  0
 10 34  1  0  0  0  0
 13 35  1  0  0  0  0
 14 36  1  0  0  0  0
 16 37  1  0  0  0  0
 17 38  1  0  0  0  0
 19 39  1  0  0  0  0
 22 40  1  0  0  0  0
 23 41  1  0  0  0  0
 23 42  1  0  0  0  0
 23 43  1  0  0  0  0
 24 44  1  0  0  0  0
 24 45  1  0  0  0  0
 25 46  1  0  0  0  0
 25 47  1  0  0  0  0
 27 48  1  0  0  0  0
 27 49  1  0  0  0  0
 28 50  1  0  0  0  0
 28 51  1  0  0  0  0
M  END
> <Name>
28

> <IC50[uM]>
30

$$$$
28
  -OEChem-05192314333D
 Structure written by MMmdl.
 51 55  0     0  0  0  0  0  0999 V2000
   -6.4084   12.3297  -11.9887 C   0  0  0  0  0  0  0  0  0  0  0  0
   -6.5165   11.7544  -10.7314 C   0  0  0  0  0  0  0  0  0  0  0  0
   -7.7418   10.5517  -13.0215 C   0  0  0  0  0  0  0  0  0  0  0  0
   -7.0245   11.7463  -13.1093 C   0  0  0  0  0  0  0  0  0  0  0  0
   -7.8268    9.9859  -11.7428 C   0  0  0  0  0  0  0  0  0  0  0  0
   -7.2396   10.5800  -10.6042 C   0  0  0  0  0  0  0  0  0  0  0  0
   -7.6095    9.7151   -9.5092 C   0  0  0  0  0  0  0  0  0  0  0  0
   -8.2849    8.7010   -9.9773 N   0  0  0  0  0  0  0  0  0  0  0  0
   -8.4373    8.8403  -11.2922 N   0  0  0  0  0  0  0  0  0  0  0  0
   -7.3311    9.8727   -8.0225 C   0  0  0  0  0  0  0  0  0  0  0  0
   -5.6734   13.4955  -12.1182 N   0  0  0  0  0  0  0  0  0  0  0  0
   -5.9616   10.4819   -7.7358 C   0  0  0  0  0  0  0  0  0  0  0  0
   -4.8034    9.7678   -8.0459 C   0  0  0  0  0  0  0  0  0  0  0  0
   -3.5615   10.3255   -7.7934 C   0  0  0  0  0  0  0  0  0  0  0  0
   -3.4526   11.6006   -7.2315 C   0  0  0  0  0  0  0  0  0  0  0  0
   -4.6161   12.3136   -6.9153 C   0  0  0  0  0  0  0  0  0  0  0  0
   -5.8662   11.7565   -7.1617 C   0  0  0  0  0  0  0  0  0  0  0  0
   -2.1079   12.1894   -6.9634 C   0  0  0  0  0  0  0  0  0  0  0  0
   -1.7834   13.4363   -6.4469 C   0  0  0  0  0  0  0  0  0  0  0  0
   -0.4443   13.4911   -6.3955 N   0  0  0  0  0  0  0  0  0  0  0  0
    0.1636   12.4174   -6.8067 N   0  0  0  0  0  0  0  0  0  0  0  0
   -0.8107   11.6018   -7.1804 C   0  0  0  0  0  0  0  0  0  0  0  0
    0.3735   14.6113   -5.9298 C   0  0  0  0  0  0  0  0  0  0  0  0
   -5.8857   14.5071  -13.1620 C   0  0  0  0  0  0  0  0  0  0  0  0
   -4.6042   14.8313  -13.9092 C   0  0  0  0  0  0  0  0  0  0  0  0
   -3.6374   15.2080  -12.9343 O   0  0  0  0  0  0  0  0  0  0  0  0
   -3.2854   14.1223  -12.1198 C   0  0  0  0  0  0  0  0  0  0  0  0
   -4.5109   13.8217  -11.2574 C   0  0  0  0  0  0  0  0  0  0  0  0
   -6.0481   12.2112   -9.8721 H   0  0  0  0  0  0  0  0  0  0  0  0
   -8.2018   10.0931  -13.8843 H   0  0  0  0  0  0  0  0  0  0  0  0
   -6.9404   12.2372  -14.0676 H   0  0  0  0  0  0  0  0  0  0  0  0
   -8.9313    8.1957  -11.8757 H   0  0  0  0  0  0  0  0  0  0  0  0
   -8.1032   10.5248   -7.5881 H   0  0  0  0  0  0  0  0  0  0  0  0
   -7.3800    8.8809   -7.5492 H   0  0  0  0  0  0  0  0  0  0  0  0
   -4.8756    8.7823   -8.4819 H   0  0  0  0  0  0  0  0  0  0  0  0
   -2.6674    9.7693   -8.0332 H   0  0  0  0  0  0  0  0  0  0  0  0
   -4.5421   13.2987   -6.4789 H   0  0  0  0  0  0  0  0  0  0  0  0
   -6.7619   12.3053   -6.9110 H   0  0  0  0  0  0  0  0  0  0  0  0
   -2.4737   14.2103   -6.1456 H   0  0  0  0  0  0  0  0  0  0  0  0
   -0.6522   10.6178   -7.5964 H   0  0  0  0  0  0  0  0  0  0  0  0
    1.4382   14.3462   -6.0082 H   0  0  0  0  0  0  0  0  0  0  0  0
    0.1696   15.4967   -6.5499 H   0  0  0  0  0  0  0  0  0  0  0  0
    0.1274   14.8336   -4.8810 H   0  0  0  0  0  0  0  0  0  0  0  0
   -6.6284   14.1271  -13.8790 H   0  0  0  0  0  0  0  0  0  0  0  0
   -6.2658   15.4268  -12.6932 H   0  0  0  0  0  0  0  0  0  0  0  0
   -4.2565   13.9474  -14.4640 H   0  0  0  0  0  0  0  0  0  0  0  0
   -4.7758   15.6607  -14.6111 H   0  0  0  0  0  0  0  0  0  0  0  0
   -3.0304   13.2488  -12.7378 H   0  0  0  0  0  0  0  0  0  0  0  0
   -2.4269   14.3849  -11.4842 H   0  0  0  0  0  0  0  0  0  0  0  0
   -4.7488   14.7031  -10.6438 H   0  0  0  0  0  0  0  0  0  0  0  0
   -4.2928   12.9662  -10.6013 H   0  0  0  0  0  0  0  0  0  0  0  0
  1  2  2  0  0  0  0
  1  4  1  0  0  0  0
  1 11  1  0  0  0  0
  2  6  1  0  0  0  0
  3  4  2  0  0  0  0
  3  5  1  0  0  0  0
  5  6  2  0  0  0  0
  5  9  1  0  0  0  0
  6  7  1  0  0  0  0
  7  8  2  0  0  0  0
  7 10  1  0  0  0  0
  8  9  1  0  0  0  0
 10 12  1  0  0  0  0
 11 24  1  0  0  0  0
 11 28  1  0  0  0  0
 12 13  2  0  0  0  0
 12 17  1  0  0  0  0
 13 14  1  0  0  0  0
 14 15  2  0  0  0  0
 15 16  1  0  0  0  0
 15 18  1  0  0  0  0
 16 17  2  0  0  0  0
 18 19  2  0  0  0  0
 18 22  1  0  0  0  0
 19 20  1  0  0  0  0
 20 21  1  0  0  0  0
 20 23  1  0  0  0  0
 21 22  2  0  0  0  0
 24 25  1  0  0  0  0
 25 26  1  0  0  0  0
 26 27  1  0  0  0  0
 27 28  1  0  0  0  0
  2 29  1  0  0  0  0
  3 30  1  0  0  0  0
  4 31  1  0  0  0  0
  9 32  1  0  0  0  0
 10 33  1  0  0  0  0
 10 34  1  0  0  0  0
 13 35  1  0  0  0  0
 14 36  1  0  0  0  0
 16 37  1  0  0  0  0
 17 38  1  0  0  0  0
 19 39  1  0  0  0  0
 22 40  1  0  0  0  0
 23 41  1  0  0  0  0
 23 42  1  0  0  0  0
 23 43  1  0  0  0  0
 24 44  1  0  0  0  0
 24 45  1  0  0  0  0
 25 46  1  0  0  0  0
 25 47  1  0  0  0  0
 27 48  1  0  0  0  0
 27 49  1  0  0  0  0
 28 50  1  0  0  0  0
 28 51  1  0  0  0  0
M  END
> <Name>
28

> <IC50[uM]>
30

$$$$
28
  -OEChem-05192314333D
 Structure written by MMmdl.
 51 55  0     1  0  0  0  0  0999 V2000
   -6.4084   12.3297  -11.9887 C   0  0  0  0  0  0  0  0  0  0  0  0
   -6.5165   11.7544  -10.7314 C   0  0  0  0  0  0  0  0  0  0  0  0
   -7.7418   10.5517  -13.0215 C   0  0  0  0  0  0  0  0  0  0  0  0
   -7.0245   11.7463  -13.1093 C   0  0  0  0  0  0  0  0  0  0  0  0
   -7.8268    9.9859  -11.7428 C   0  0  0  0  0  0  0  0  0  0  0  0
   -7.2396   10.5800  -10.6042 C   0  0  0  0  0  0  0  0  0  0  0  0
   -7.6095    9.7151   -9.5092 C   0  0  3  0  0  0  0  0  0  0  0  0
   -8.2849    8.7010   -9.9773 N   0  0  0  0  0  0  0  0  0  0  0  0
   -8.4373    8.8403  -11.2922 N   0  0  0  0  0  0  0  0  0  0  0  0
   -7.3311    9.8727   -8.0225 C   0  0  0  0  0  0  0  0  0  0  0  0
   -5.6734   13.4955  -12.1182 N   0  0  0  0  0  0  0  0  0  0  0  0
   -5.9616   10.4819   -7.7358 C   0  0  0  0  0  0  0  0  0  0  0  0
   -4.8034    9.7678   -8.0459 C   0  0  0  0  0  0  0  0  0  0  0  0
   -3.5615   10.3255   -7.7934 C   0  0  0  0  0  0  0  0  0  0  0  0
   -3.4526   11.6006   -7.2315 C   0  0  0  0  0  0  0  0  0  0  0  0
   -4.6161   12.3136   -6.9153 C   0  0  0  0  0  0  0  0  0  0  0  0
   -5.8662   11.7565   -7.1617 C   0  0  0  0  0  0  0  0  0  0  0  0
   -2.1079   12.1894   -6.9634 C   0  0  0  0  0  0  0  0  0  0  0  0
   -1.7834   13.4363   -6.4469 C   0  0  0  0  0  0  0  0  0  0  0  0
   -0.4443   13.4911   -6.3955 N   0  0  0  0  0  0  0  0  0  0  0  0
    0.1636   12.4174   -6.8067 N   0  0  0  0  0  0  0  0  0  0  0  0
   -0.8107   11.6018   -7.1804 C   0  0  0  0  0  0  0  0  0  0  0  0
    0.3735   14.6113   -5.9298 C   0  0  0  0  0  0  0  0  0  0  0  0
   -5.8857   14.5071  -13.1620 C   0  0  0  0  0  0  0  0  0  0  0  0
   -4.6042   14.8313  -13.9092 C   0  0  0  0  0  0  0  0  0  0  0  0
   -3.6374   15.2080  -12.9343 O   0  0  0  0  0  0  0  0  0  0  0  0
   -3.2854   14.1223  -12.1198 C   0  0  0  0  0  0  0  0  0  0  0  0
   -4.5109   13.8217  -11.2574 C   0  0  0  0  0  0  0  0  0  0  0  0
   -6.0481   12.2112   -9.8721 H   0  0  0  0  0  0  0  0  0  0  0  0
   -8.2018   10.0931  -13.8843 H   0  0  0  0  0  0  0  0  0  0  0  0
   -6.9404   12.2372  -14.0676 H   0  0  0  0  0  0  0  0  0  0  0  0
   -6.6716    9.1531   -9.6299 H   0  0  0  0  0  0  0  0  0  0  0  0
   -8.1032   10.5248   -7.5881 H   0  0  0  0  0  0  0  0  0  0  0  0
   -7.3800    8.8809   -7.5492 H   0  0  0  0  0  0  0  0  0  0  0  0
   -4.8756    8.7823   -8.4819 H   0  0  0  0  0  0  0  0  0  0  0  0
   -2.6674    9.7693   -8.0332 H   0  0  0  0  0  0  0  0  0  0  0  0
   -4.5421   13.2987   -6.4789 H   0  0  0  0  0  0  0  0  0  0  0  0
   -6.7619   12.3053   -6.9110 H   0  0  0  0  0  0  0  0  0  0  0  0
   -2.4737   14.2103   -6.1456 H   0  0  0  0  0  0  0  0  0  0  0  0
   -0.6522   10.6178   -7.5964 H   0  0  0  0  0  0  0  0  0  0  0  0
    1.4382   14.3462   -6.0082 H   0  0  0  0  0  0  0  0  0  0  0  0
    0.1696   15.4967   -6.5499 H   0  0  0  0  0  0  0  0  0  0  0  0
    0.1274   14.8336   -4.8810 H   0  0  0  0  0  0  0  0  0  0  0  0
   -6.6284   14.1271  -13.8790 H   0  0  0  0  0  0  0  0  0  0  0  0
   -6.2658   15.4268  -12.6932 H   0  0  0  0  0  0  0  0  0  0  0  0
   -4.2565   13.9474  -14.4640 H   0  0  0  0  0  0  0  0  0  0  0  0
   -4.7758   15.6607  -14.6111 H   0  0  0  0  0  0  0  0  0  0  0  0
   -3.0304   13.2488  -12.7378 H   0  0  0  0  0  0  0  0  0  0  0  0
   -2.4269   14.3849  -11.4842 H   0  0  0  0  0  0  0  0  0  0  0  0
   -4.7488   14.7031  -10.6438 H   0  0  0  0  0  0  0  0  0  0  0  0
   -4.2928   12.9662  -10.6013 H   0  0  0  0  0  0  0  0  0  0  0  0
  1  2  2  0  0  0  0
  1  4  1  0  0  0  0
  1 11  1  0  0  0  0
  2  6  1  0  0  0  0
  3  4  2  0  0  0  0
  3  5  1  0  0  0  0
  5  6  2  0  0  0  0
  5  9  1  0  0  0  0
  6  7  1  0  0  0  0
  7  8  1  0  0  0  0
  7 10  1  0  0  0  0
  8  9  2  0  0  0  0
 10 12  1  0  0  0  0
 11 24  1  0  0  0  0
 11 28  1  0  0  0  0
 12 13  2  0  0  0  0
 12 17  1  0  0  0  0
 13 14  1  0  0  0  0
 14 15  2  0  0  0  0
 15 16  1  0  0  0  0
 15 18  1  0  0  0  0
 16 17  2  0  0  0  0
 18 19  2  0  0  0  0
 18 22  1  0  0  0  0
 19 20  1  0  0  0  0
 20 21  1  0  0  0  0
 20 23  1  0  0  0  0
 21 22  2  0  0  0  0
 24 25  1  0  0  0  0
 25 26  1  0  0  0  0
 26 27  1  0  0  0  0
 27 28  1  0  0  0  0
  2 29  1  0  0  0  0
  3 30  1  0  0  0  0
  4 31  1  0  0  0  0
  7 32  1  0  0  0  0
 10 33  1  0  0  0  0
 10 34  1  0  0  0  0
 13 35  1  0  0  0  0
 14 36  1  0  0  0  0
 16 37  1  0  0  0  0
 17 38  1  0  0  0  0
 19 39  1  0  0  0  0
 22 40  1  0  0  0  0
 23 41  1  0  0  0  0
 23 42  1  0  0  0  0
 23 43  1  0  0  0  0
 24 44  1  0  0  0  0
 24 45  1  0  0  0  0
 25 46  1  0  0  0  0
 25 47  1  0  0  0  0
 27 48  1  0  0  0  0
 27 49  1  0  0  0  0
 28 50  1  0  0  0  0
 28 51  1  0  0  0  0
M  END
> <Name>
28

> <IC50[uM]>
30

$$$$
28
  -OEChem-05192314333D
 Structure written by MMmdl.
 51 55  0     0  0  0  0  0  0999 V2000
   -6.4084   12.3297  -11.9887 C   0  0  0  0  0  0  0  0  0  0  0  0
   -6.5165   11.7544  -10.7314 C   0  0  0  0  0  0  0  0  0  0  0  0
   -7.7418   10.5517  -13.0215 C   0  0  0  0  0  0  0  0  0  0  0  0
   -7.0245   11.7463  -13.1093 C   0  0  0  0  0  0  0  0  0  0  0  0
   -7.8268    9.9859  -11.7428 C   0  0  0  0  0  0  0  0  0  0  0  0
   -7.2396   10.5800  -10.6042 C   0  0  0  0  0  0  0  0  0  0  0  0
   -7.6095    9.7151   -9.5092 C   0  0  0  0  0  0  0  0  0  0  0  0
   -8.2849    8.7010   -9.9773 N   0  0  0  0  0  0  0  0  0  0  0  0
   -8.4373    8.8403  -11.2922 N   0  0  0  0  0  0  0  0  0  0  0  0
   -7.3311    9.8727   -8.0225 C   0  0  0  0  0  0  0  0  0  0  0  0
   -5.6734   13.4955  -12.1182 N   0  0  0  0  0  0  0  0  0  0  0  0
   -5.9616   10.4819   -7.7358 C   0  0  0  0  0  0  0  0  0  0  0  0
   -4.8034    9.7678   -8.0459 C   0  0  0  0  0  0  0  0  0  0  0  0
   -3.5615   10.3255   -7.7934 C   0  0  0  0  0  0  0  0  0  0  0  0
   -3.4526   11.6006   -7.2315 C   0  0  0  0  0  0  0  0  0  0  0  0
   -4.6161   12.3136   -6.9153 C   0  0  0  0  0  0  0  0  0  0  0  0
   -5.8662   11.7565   -7.1617 C   0  0  0  0  0  0  0  0  0  0  0  0
   -2.1079   12.1894   -6.9634 C   0  0  0  0  0  0  0  0  0  0  0  0
   -1.7834   13.4363   -6.4469 C   0  0  0  0  0  0  0  0  0  0  0  0
   -0.4443   13.4911   -6.3955 N   0  0  0  0  0  0  0  0  0  0  0  0
    0.1636   12.4174   -6.8067 N   0  0  0  0  0  0  0  0  0  0  0  0
   -0.8107   11.6018   -7.1804 C   0  0  0  0  0  0  0  0  0  0  0  0
    0.3735   14.6113   -5.9298 C   0  0  0  0  0  0  0  0  0  0  0  0
   -5.8857   14.5071  -13.1620 C   0  0  0  0  0  0  0  0  0  0  0  0
   -4.6042   14.8313  -13.9092 C   0  0  0  0  0  0  0  0  0  0  0  0
   -3.6374   15.2080  -12.9343 O   0  0  0  0  0  0  0  0  0  0  0  0
   -3.2854   14.1223  -12.1198 C   0  0  0  0  0  0  0  0  0  0  0  0
   -4.5109   13.8217  -11.2574 C   0  0  0  0  0  0  0  0  0  0  0  0
   -6.0481   12.2112   -9.8721 H   0  0  0  0  0  0  0  0  0  0  0  0
   -8.2018   10.0931  -13.8843 H   0  0  0  0  0  0  0  0  0  0  0  0
   -6.9404   12.2372  -14.0676 H   0  0  0  0  0  0  0  0  0  0  0  0
   -7.7893    7.8536   -9.7868 H   0  0  0  0  0  0  0  0  0  0  0  0
   -9.4134    8.8852  -11.5048 H   0  0  0  0  0  0  0  0  0  0  0  0
   -8.0292    9.5839   -7.2507 H   0  0  0  0  0  0  0  0  0  0  0  0
   -4.8756    8.7823   -8.4819 H   0  0  0  0  0  0  0  0  0  0  0  0
   -2.6674    9.7693   -8.0332 H   0  0  0  0  0  0  0  0  0  0  0  0
   -4.5421   13.2987   -6.4789 H   0  0  0  0  0  0  0  0  0  0  0  0
   -6.7619   12.3053   -6.9110 H   0  0  0  0  0  0  0  0  0  0  0  0
   -2.4737   14.2103   -6.1456 H   0  0  0  0  0  0  0  0  0  0  0  0
   -0.6522   10.6178   -7.5964 H   0  0  0  0  0  0  0  0  0  0  0  0
    1.4382   14.3462   -6.0082 H   0  0  0  0  0  0  0  0  0  0  0  0
    0.1696   15.4967   -6.5499 H   0  0  0  0  0  0  0  0  0  0  0  0
    0.1274   14.8336   -4.8810 H   0  0  0  0  0  0  0  0  0  0  0  0
   -6.6284   14.1271  -13.8790 H   0  0  0  0  0  0  0  0  0  0  0  0
   -6.2658   15.4268  -12.6932 H   0  0  0  0  0  0  0  0  0  0  0  0
   -4.2565   13.9474  -14.4640 H   0  0  0  0  0  0  0  0  0  0  0  0
   -4.7758   15.6607  -14.6111 H   0  0  0  0  0  0  0  0  0  0  0  0
   -3.0304   13.2488  -12.7378 H   0  0  0  0  0  0  0  0  0  0  0  0
   -2.4269   14.3849  -11.4842 H   0  0  0  0  0  0  0  0  0  0  0  0
   -4.7488   14.7031  -10.6438 H   0  0  0  0  0  0  0  0  0  0  0  0
   -4.2928   12.9662  -10.6013 H   0  0  0  0  0  0  0  0  0  0  0  0
  1  2  2  0  0  0  0
  1  4  1  0  0  0  0
  1 11  1  0  0  0  0
  2  6  1  0  0  0  0
  3  4  2  0  0  0  0
  3  5  1  0  0  0  0
  5  6  2  0  0  0  0
  5  9  1  0  0  0  0
  6  7  1  0  0  0  0
  7  8  1  0  0  0  0
  7 10  2  3  0  0  0
  8  9  1  0  0  0  0
 10 12  1  0  0  0  0
 11 24  1  0  0  0  0
 11 28  1  0  0  0  0
 12 13  2  0  0  0  0
 12 17  1  0  0  0  0
 13 14  1  0  0  0  0
 14 15  2  0  0  0  0
 15 16  1  0  0  0  0
 15 18  1  0  0  0  0
 16 17  2  0  0  0  0
 18 19  2  0  0  0  0
 18 22  1  0  0  0  0
 19 20  1  0  0  0  0
 20 21  1  0  0  0  0
 20 23  1  0  0  0  0
 21 22  2  0  0  0  0
 24 25  1  0  0  0  0
 25 26  1  0  0  0  0
 26 27  1  0  0  0  0
 27 28  1  0  0  0  0
  2 29  1  0  0  0  0
  3 30  1  0  0  0  0
  4 31  1  0  0  0  0
  8 32  1  0  0  0  0
  9 33  1  0  0  0  0
 10 34  1  0  0  0  0
 13 35  1  0  0  0  0
 14 36  1  0  0  0  0
 16 37  1  0  0  0  0
 17 38  1  0  0  0  0
 19 39  1  0  0  0  0
 22 40  1  0  0  0  0
 23 41  1  0  0  0  0
 23 42  1  0  0  0  0
 23 43  1  0  0  0  0
 24 44  1  0  0  0  0
 24 45  1  0  0  0  0
 25 46  1  0  0  0  0
 25 47  1  0  0  0  0
 27 48  1  0  0  0  0
 27 49  1  0  0  0  0
 28 50  1  0  0  0  0
 28 51  1  0  0  0  0
M  END
> <Name>
28

> <IC50[uM]>
30

$$$$
28
  -OEChem-05192314333D
 Structure written by MMmdl.
 51 55  0     1  0  0  0  0  0999 V2000
   -6.4084   12.3297  -11.9887 C   0  0  3  0  0  0  0  0  0  0  0  0
   -6.5165   11.7544  -10.7314 C   0  0  0  0  0  0  0  0  0  0  0  0
   -7.7418   10.5517  -13.0215 C   0  0  0  0  0  0  0  0  0  0  0  0
   -7.0245   11.7463  -13.1093 C   0  0  0  0  0  0  0  0  0  0  0  0
   -7.8268    9.9859  -11.7428 C   0  0  0  0  0  0  0  0  0  0  0  0
   -7.2396   10.5800  -10.6042 C   0  0  0  0  0  0  0  0  0  0  0  0
   -7.6095    9.7151   -9.5092 C   0  0  0  0  0  0  0  0  0  0  0  0
   -8.2849    8.7010   -9.9773 N   0  0  0  0  0  0  0  0  0  0  0  0
   -8.4373    8.8403  -11.2922 N   0  0  0  0  0  0  0  0  0  0  0  0
   -7.3311    9.8727   -8.0225 C   0  0  0  0  0  0  0  0  0  0  0  0
   -5.6734   13.4955  -12.1182 N   0  0  0  0  0  0  0  0  0  0  0  0
   -5.9616   10.4819   -7.7358 C   0  0  0  0  0  0  0  0  0  0  0  0
   -4.8034    9.7678   -8.0459 C   0  0  0  0  0  0  0  0  0  0  0  0
   -3.5615   10.3255   -7.7934 C   0  0  0  0  0  0  0  0  0  0  0  0
   -3.4526   11.6006   -7.2315 C   0  0  0  0  0  0  0  0  0  0  0  0
   -4.6161   12.3136   -6.9153 C   0  0  0  0  0  0  0  0  0  0  0  0
   -5.8662   11.7565   -7.1617 C   0  0  0  0  0  0  0  0  0  0  0  0
   -2.1079   12.1894   -6.9634 C   0  0  0  0  0  0  0  0  0  0  0  0
   -1.7834   13.4363   -6.4469 C   0  0  0  0  0  0  0  0  0  0  0  0
   -0.4443   13.4911   -6.3955 N   0  0  0  0  0  0  0  0  0  0  0  0
    0.1636   12.4174   -6.8067 N   0  0  0  0  0  0  0  0  0  0  0  0
   -0.8107   11.6018   -7.1804 C   0  0  0  0  0  0  0  0  0  0  0  0
    0.3735   14.6113   -5.9298 C   0  0  0  0  0  0  0  0  0  0  0  0
   -5.8857   14.5071  -13.1620 C   0  0  0  0  0  0  0  0  0  0  0  0
   -4.6042   14.8313  -13.9092 C   0  0  0  0  0  0  0  0  0  0  0  0
   -3.6374   15.2080  -12.9343 O   0  0  0  0  0  0  0  0  0  0  0  0
   -3.2854   14.1223  -12.1198 C   0  0  0  0  0  0  0  0  0  0  0  0
   -4.5109   13.8217  -11.2574 C   0  0  0  0  0  0  0  0  0  0  0  0
   -7.3155   12.9217  -11.7969 H   0  0  0  0  0  0  0  0  0  0  0  0
   -6.0481   12.2112   -9.8721 H   0  0  0  0  0  0  0  0  0  0  0  0
   -8.2018   10.0931  -13.8843 H   0  0  0  0  0  0  0  0  0  0  0  0
   -6.9404   12.2372  -14.0676 H   0  0  0  0  0  0  0  0  0  0  0  0
   -8.6336    7.9382   -9.4328 H   0  0  0  0  0  0  0  0  0  0  0  0
   -8.0292    9.5839   -7.2507 H   0  0  0  0  0  0  0  0  0  0  0  0
   -4.8756    8.7823   -8.4819 H   0  0  0  0  0  0  0  0  0  0  0  0
   -2.6674    9.7693   -8.0332 H   0  0  0  0  0  0  0  0  0  0  0  0
   -4.5421   13.2987   -6.4789 H   0  0  0  0  0  0  0  0  0  0  0  0
   -6.7619   12.3053   -6.9110 H   0  0  0  0  0  0  0  0  0  0  0  0
   -2.4737   14.2103   -6.1456 H   0  0  0  0  0  0  0  0  0  0  0  0
   -0.6522   10.6178   -7.5964 H   0  0  0  0  0  0  0  0  0  0  0  0
    1.4382   14.3462   -6.0082 H   0  0  0  0  0  0  0  0  0  0  0  0
    0.1696   15.4967   -6.5499 H   0  0  0  0  0  0  0  0  0  0  0  0
    0.1274   14.8336   -4.8810 H   0  0  0  0  0  0  0  0  0  0  0  0
   -6.6284   14.1271  -13.8790 H   0  0  0  0  0  0  0  0  0  0  0  0
   -6.2658   15.4268  -12.6932 H   0  0  0  0  0  0  0  0  0  0  0  0
   -4.2565   13.9474  -14.4640 H   0  0  0  0  0  0  0  0  0  0  0  0
   -4.7758   15.6607  -14.6111 H   0  0  0  0  0  0  0  0  0  0  0  0
   -3.0304   13.2488  -12.7378 H   0  0  0  0  0  0  0  0  0  0  0  0
   -2.4269   14.3849  -11.4842 H   0  0  0  0  0  0  0  0  0  0  0  0
   -4.7488   14.7031  -10.6438 H   0  0  0  0  0  0  0  0  0  0  0  0
   -4.2928   12.9662  -10.6013 H   0  0  0  0  0  0  0  0  0  0  0  0
  1  2  1  0  0  0  0
  1  4  1  0  0  0  0
  1 11  1  0  0  0  0
  2  6  2  0  0  0  0
  3  4  2  0  0  0  0
  3  5  1  0  0  0  0
  5  6  1  0  0  0  0
  5  9  2  0  0  0  0
  6  7  1  0  0  0  0
  7  8  1  0  0  0  0
  7 10  2  3  0  0  0
  8  9  1  0  0  0  0
 10 12  1  0  0  0  0
 11 24  1  0  0  0  0
 11 28  1  0  0  0  0
 12 13  2  0  0  0  0
 12 17  1  0  0  0  0
 13 14  1  0  0  0  0
 14 15  2  0  0  0  0
 15 16  1  0  0  0  0
 15 18  1  0  0  0  0
 16 17  2  0  0  0  0
 18 19  2  0  0  0  0
 18 22  1  0  0  0  0
 19 20  1  0  0  0  0
 20 21  1  0  0  0  0
 20 23  1  0  0  0  0
 21 22  2  0  0  0  0
 24 25  1  0  0  0  0
 25 26  1  0  0  0  0
 26 27  1  0  0  0  0
 27 28  1  0  0  0  0
  1 29  1  0  0  0  0
  2 30  1  0  0  0  0
  3 31  1  0  0  0  0
  4 32  1  0  0  0  0
  8 33  1  0  0  0  0
 10 34  1  0  0  0  0
 13 35  1  0  0  0  0
 14 36  1  0  0  0  0
 16 37  1  0  0  0  0
 17 38  1  0  0  0  0
 19 39  1  0  0  0  0
 22 40  1  0  0  0  0
 23 41  1  0  0  0  0
 23 42  1  0  0  0  0
 23 43  1  0  0  0  0
 24 44  1  0  0  0  0
 24 45  1  0  0  0  0
 25 46  1  0  0  0  0
 25 47  1  0  0  0  0
 27 48  1  0  0  0  0
 27 49  1  0  0  0  0
 28 50  1  0  0  0  0
 28 51  1  0  0  0  0
M  END
> <Name>
28

> <IC50[uM]>
30

$$$$
28
  -OEChem-05192314333D
 Structure written by MMmdl.
 51 55  0     0  0  0  0  0  0999 V2000
   -6.4084   12.3297  -11.9887 C   0  0  0  0  0  0  0  0  0  0  0  0
   -6.5165   11.7544  -10.7314 C   0  0  0  0  0  0  0  0  0  0  0  0
   -7.7418   10.5517  -13.0215 C   0  0  0  0  0  0  0  0  0  0  0  0
   -7.0245   11.7463  -13.1093 C   0  0  0  0  0  0  0  0  0  0  0  0
   -7.8268    9.9859  -11.7428 C   0  0  0  0  0  0  0  0  0  0  0  0
   -7.2396   10.5800  -10.6042 C   0  0  0  0  0  0  0  0  0  0  0  0
   -7.6095    9.7151   -9.5092 C   0  0  0  0  0  0  0  0  0  0  0  0
   -8.2849    8.7010   -9.9773 N   0  0  0  0  0  0  0  0  0  0  0  0
   -8.4373    8.8403  -11.2922 N   0  0  0  0  0  0  0  0  0  0  0  0
   -7.3311    9.8727   -8.0225 C   0  0  0  0  0  0  0  0  0  0  0  0
   -5.6734   13.4955  -12.1182 N   0  0  0  0  0  0  0  0  0  0  0  0
   -5.9616   10.4819   -7.7358 C   0  0  0  0  0  0  0  0  0  0  0  0
   -4.8034    9.7678   -8.0459 C   0  0  0  0  0  0  0  0  0  0  0  0
   -3.5615   10.3255   -7.7934 C   0  0  0  0  0  0  0  0  0  0  0  0
   -3.4526   11.6006   -7.2315 C   0  0  0  0  0  0  0  0  0  0  0  0
   -4.6161   12.3136   -6.9153 C   0  0  0  0  0  0  0  0  0  0  0  0
   -5.8662   11.7565   -7.1617 C   0  0  0  0  0  0  0  0  0  0  0  0
   -2.1079   12.1894   -6.9634 C   0  0  0  0  0  0  0  0  0  0  0  0
   -1.7834   13.4363   -6.4469 C   0  0  0  0  0  0  0  0  0  0  0  0
   -0.4443   13.4911   -6.3955 N   0  0  0  0  0  0  0  0  0  0  0  0
    0.1636   12.4174   -6.8067 N   0  0  0  0  0  0  0  0  0  0  0  0
   -0.8107   11.6018   -7.1804 C   0  0  0  0  0  0  0  0  0  0  0  0
    0.3735   14.6113   -5.9298 C   0  0  0  0  0  0  0  0  0  0  0  0
   -5.8857   14.5071  -13.1620 C   0  0  0  0  0  0  0  0  0  0  0  0
   -4.6042   14.8313  -13.9092 C   0  0  0  0  0  0  0  0  0  0  0  0
   -3.6374   15.2080  -12.9343 O   0  0  0  0  0  0  0  0  0  0  0  0
   -3.2854   14.1223  -12.1198 C   0  0  0  0  0  0  0  0  0  0  0  0
   -4.5109   13.8217  -11.2574 C   0  0  0  0  0  0  0  0  0  0  0  0
   -6.0481   12.2112   -9.8721 H   0  0  0  0  0  0  0  0  0  0  0  0
   -8.7656   10.7458  -13.3738 H   0  0  0  0  0  0  0  0  0  0  0  0
   -7.2589    9.8183  -13.6840 H   0  0  0  0  0  0  0  0  0  0  0  0
   -6.9404   12.2372  -14.0676 H   0  0  0  0  0  0  0  0  0  0  0  0
   -8.6336    7.9382   -9.4328 H   0  0  0  0  0  0  0  0  0  0  0  0
   -8.0292    9.5839   -7.2507 H   0  0  0  0  0  0  0  0  0  0  0  0
   -4.8756    8.7823   -8.4819 H   0  0  0  0  0  0  0  0  0  0  0  0
   -2.6674    9.7693   -8.0332 H   0  0  0  0  0  0  0  0  0  0  0  0
   -4.5421   13.2987   -6.4789 H   0  0  0  0  0  0  0  0  0  0  0  0
   -6.7619   12.3053   -6.9110 H   0  0  0  0  0  0  0  0  0  0  0  0
   -2.4737   14.2103   -6.1456 H   0  0  0  0  0  0  0  0  0  0  0  0
   -0.6522   10.6178   -7.5964 H   0  0  0  0  0  0  0  0  0  0  0  0
    1.4382   14.3462   -6.0082 H   0  0  0  0  0  0  0  0  0  0  0  0
    0.1696   15.4967   -6.5499 H   0  0  0  0  0  0  0  0  0  0  0  0
    0.1274   14.8336   -4.8810 H   0  0  0  0  0  0  0  0  0  0  0  0
   -6.6284   14.1271  -13.8790 H   0  0  0  0  0  0  0  0  0  0  0  0
   -6.2658   15.4268  -12.6932 H   0  0  0  0  0  0  0  0  0  0  0  0
   -4.2565   13.9474  -14.4640 H   0  0  0  0  0  0  0  0  0  0  0  0
   -4.7758   15.6607  -14.6111 H   0  0  0  0  0  0  0  0  0  0  0  0
   -3.0304   13.2488  -12.7378 H   0  0  0  0  0  0  0  0  0  0  0  0
   -2.4269   14.3849  -11.4842 H   0  0  0  0  0  0  0  0  0  0  0  0
   -4.7488   14.7031  -10.6438 H   0  0  0  0  0  0  0  0  0  0  0  0
   -4.2928   12.9662  -10.6013 H   0  0  0  0  0  0  0  0  0  0  0  0
  1  2  1  0  0  0  0
  1  4  2  0  0  0  0
  1 11  1  0  0  0  0
  2  6  2  0  0  0  0
  3  4  1  0  0  0  0
  3  5  1  0  0  0  0
  5  6  1  0  0  0  0
  5  9  2  0  0  0  0
  6  7  1  0  0  0  0
  7  8  1  0  0  0  0
  7 10  2  3  0  0  0
  8  9  1  0  0  0  0
 10 12  1  0  0  0  0
 11 24  1  0  0  0  0
 11 28  1  0  0  0  0
 12 13  2  0  0  0  0
 12 17  1  0  0  0  0
 13 14  1  0  0  0  0
 14 15  2  0  0  0  0
 15 16  1  0  0  0  0
 15 18  1  0  0  0  0
 16 17  2  0  0  0  0
 18 19  2  0  0  0  0
 18 22  1  0  0  0  0
 19 20  1  0  0  0  0
 20 21  1  0  0  0  0
 20 23  1  0  0  0  0
 21 22  2  0  0  0  0
 24 25  1  0  0  0  0
 25 26  1  0  0  0  0
 26 27  1  0  0  0  0
 27 28  1  0  0  0  0
  2 29  1  0  0  0  0
  3 30  1  0  0  0  0
  3 31  1  0  0  0  0
  4 32  1  0  0  0  0
  8 33  1  0  0  0  0
 10 34  1  0  0  0  0
 13 35  1  0  0  0  0
 14 36  1  0  0  0  0
 16 37  1  0  0  0  0
 17 38  1  0  0  0  0
 19 39  1  0  0  0  0
 22 40  1  0  0  0  0
 23 41  1  0  0  0  0
 23 42  1  0  0  0  0
 23 43  1  0  0  0  0
 24 44  1  0  0  0  0
 24 45  1  0  0  0  0
 25 46  1  0  0  0  0
 25 47  1  0  0  0  0
 27 48  1  0  0  0  0
 27 49  1  0  0  0  0
 28 50  1  0  0  0  0
 28 51  1  0  0  0  0
M  END
> <Name>
28

> <IC50[uM]>
30

$$$$
28
  -OEChem-05192314333D
 Structure written by MMmdl.
 51 55  0     1  0  0  0  0  0999 V2000
   -6.4084   12.3297  -11.9887 C   0  0  0  0  0  0  0  0  0  0  0  0
   -6.5165   11.7544  -10.7314 C   0  0  0  0  0  0  0  0  0  0  0  0
   -7.7418   10.5517  -13.0215 C   0  0  0  0  0  0  0  0  0  0  0  0
   -7.0245   11.7463  -13.1093 C   0  0  0  0  0  0  0  0  0  0  0  0
   -7.8268    9.9859  -11.7428 C   0  0  0  0  0  0  0  0  0  0  0  0
   -7.2396   10.5800  -10.6042 C   0  0  0  0  0  0  0  0  0  0  0  0
   -7.6095    9.7151   -9.5092 C   0  0  0  0  0  0  0  0  0  0  0  0
   -8.2849    8.7010   -9.9773 N   0  0  0  0  0  0  0  0  0  0  0  0
   -8.4373    8.8403  -11.2922 N   0  0  0  0  0  0  0  0  0  0  0  0
   -7.3311    9.8727   -8.0225 C   0  0  0  0  0  0  0  0  0  0  0  0
   -5.6734   13.4955  -12.1182 N   0  0  0  0  0  0  0  0  0  0  0  0
   -5.9616   10.4819   -7.7358 C   0  0  0  0  0  0  0  0  0  0  0  0
   -4.8034    9.7678   -8.0459 C   0  0  0  0  0  0  0  0  0  0  0  0
   -3.5615   10.3255   -7.7934 C   0  0  0  0  0  0  0  0  0  0  0  0
   -3.4526   11.6006   -7.2315 C   0  0  0  0  0  0  0  0  0  0  0  0
   -4.6161   12.3136   -6.9153 C   0  0  0  0  0  0  0  0  0  0  0  0
   -5.8662   11.7565   -7.1617 C   0  0  0  0  0  0  0  0  0  0  0  0
   -2.1079   12.1894   -6.9634 C   0  0  0  0  0  0  0  0  0  0  0  0
   -1.7834   13.4363   -6.4469 C   0  0  0  0  0  0  0  0  0  0  0  0
   -0.4443   13.4911   -6.3955 N   0  0  3  0  0  0  0  0  0  0  0  0
    0.1636   12.4174   -6.8067 N   0  0  0  0  0  0  0  0  0  0  0  0
   -0.8107   11.6018   -7.1804 C   0  0  0  0  0  0  0  0  0  0  0  0
    0.3735   14.6113   -5.9298 C   0  0  0  0  0  0  0  0  0  0  0  0
   -5.8857   14.5071  -13.1620 C   0  0  0  0  0  0  0  0  0  0  0  0
   -4.6042   14.8313  -13.9092 C   0  0  0  0  0  0  0  0  0  0  0  0
   -3.6374   15.2080  -12.9343 O   0  0  0  0  0  0  0  0  0  0  0  0
   -3.2854   14.1223  -12.1198 C   0  0  0  0  0  0  0  0  0  0  0  0
   -4.5109   13.8217  -11.2574 C   0  0  0  0  0  0  0  0  0  0  0  0
   -6.0481   12.2112   -9.8721 H   0  0  0  0  0  0  0  0  0  0  0  0
   -8.2018   10.0931  -13.8843 H   0  0  0  0  0  0  0  0  0  0  0  0
   -6.9404   12.2372  -14.0676 H   0  0  0  0  0  0  0  0  0  0  0  0
   -8.6336    7.9382   -9.4328 H   0  0  0  0  0  0  0  0  0  0  0  0
   -8.0292    9.5839   -7.2507 H   0  0  0  0  0  0  0  0  0  0  0  0
   -4.8756    8.7823   -8.4819 H   0  0  0  0  0  0  0  0  0  0  0  0
   -2.6674    9.7693   -8.0332 H   0  0  0  0  0  0  0  0  0  0  0  0
   -4.5421   13.2987   -6.4789 H   0  0  0  0  0  0  0  0  0  0  0  0
   -6.7619   12.3053   -6.9110 H   0  0  0  0  0  0  0  0  0  0  0  0
   -2.1713   14.2311   -7.1010 H   0  0  0  0  0  0  0  0  0  0  0  0
   -2.2073   13.5518   -5.4385 H   0  0  0  0  0  0  0  0  0  0  0  0
   -0.6522   10.6178   -7.5964 H   0  0  0  0  0  0  0  0  0  0  0  0
    1.4382   14.3462   -6.0082 H   0  0  0  0  0  0  0  0  0  0  0  0
    0.1696   15.4967   -6.5499 H   0  0  0  0  0  0  0  0  0  0  0  0
    0.1274   14.8336   -4.8810 H   0  0  0  0  0  0  0  0  0  0  0  0
   -6.6284   14.1271  -13.8790 H   0  0  0  0  0  0  0  0  0  0  0  0
   -6.2658   15.4268  -12.6932 H   0  0  0  0  0  0  0  0  0  0  0  0
   -4.2565   13.9474  -14.4640 H   0  0  0  0  0  0  0  0  0  0  0  0
   -4.7758   15.6607  -14.6111 H   0  0  0  0  0  0  0  0  0  0  0  0
   -3.0304   13.2488  -12.7378 H   0  0  0  0  0  0  0  0  0  0  0  0
   -2.4269   14.3849  -11.4842 H   0  0  0  0  0  0  0  0  0  0  0  0
   -4.7488   14.7031  -10.6438 H   0  0  0  0  0  0  0  0  0  0  0  0
   -4.2928   12.9662  -10.6013 H   0  0  0  0  0  0  0  0  0  0  0  0
  1  2  2  0  0  0  0
  1  4  1  0  0  0  0
  1 11  1  0  0  0  0
  2  6  1  0  0  0  0
  3  4  2  0  0  0  0
  3  5  1  0  0  0  0
  5  6  1  0  0  0  0
  5  9  2  0  0  0  0
  6  7  2  0  0  0  0
  7  8  1  0  0  0  0
  7 10  1  0  0  0  0
  8  9  1  0  0  0  0
 10 12  2  0  0  0  0
 11 24  1  0  0  0  0
 11 28  1  0  0  0  0
 12 13  1  0  0  0  0
 12 17  1  0  0  0  0
 13 14  2  0  0  0  0
 14 15  1  0  0  0  0
 15 16  1  0  0  0  0
 15 18  2  0  0  0  0
 16 17  2  0  0  0  0
 18 19  1  0  0  0  0
 18 22  1  0  0  0  0
 19 20  1  0  0  0  0
 20 21  1  0  0  0  0
 20 23  1  0  0  0  0
 21 22  2  0  0  0  0
 24 25  1  0  0  0  0
 25 26  1  0  0  0  0
 26 27  1  0  0  0  0
 27 28  1  0  0  0  0
  2 29  1  0  0  0  0
  3 30  1  0  0  0  0
  4 31  1  0  0  0  0
  8 32  1  0  0  0  0
 10 33  1  0  0  0  0
 13 34  1  0  0  0  0
 14 35  1  0  0  0  0
 16 36  1  0  0  0  0
 17 37  1  0  0  0  0
 19 38  1  0  0  0  0
 19 39  1  0  0  0  0
 22 40  1  0  0  0  0
 23 41  1  0  0  0  0
 23 42  1  0  0  0  0
 23 43  1  0  0  0  0
 24 44  1  0  0  0  0
 24 45  1  0  0  0  0
 25 46  1  0  0  0  0
 25 47  1  0  0  0  0
 27 48  1  0  0  0  0
 27 49  1  0  0  0  0
 28 50  1  0  0  0  0
 28 51  1  0  0  0  0
M  END
> <Name>
28

> <IC50[uM]>
30

$$$$
28
  -OEChem-05192314333D
 Structure written by MMmdl.
 51 55  0     1  0  0  0  0  0999 V2000
   -6.4084   12.3297  -11.9887 C   0  0  0  0  0  0  0  0  0  0  0  0
   -6.5165   11.7544  -10.7314 C   0  0  0  0  0  0  0  0  0  0  0  0
   -7.7418   10.5517  -13.0215 C   0  0  0  0  0  0  0  0  0  0  0  0
   -7.0245   11.7463  -13.1093 C   0  0  0  0  0  0  0  0  0  0  0  0
   -7.8268    9.9859  -11.7428 C   0  0  0  0  0  0  0  0  0  0  0  0
   -7.2396   10.5800  -10.6042 C   0  0  0  0  0  0  0  0  0  0  0  0
   -7.6095    9.7151   -9.5092 C   0  0  0  0  0  0  0  0  0  0  0  0
   -8.2849    8.7010   -9.9773 N   0  0  0  0  0  0  0  0  0  0  0  0
   -8.4373    8.8403  -11.2922 N   0  0  0  0  0  0  0  0  0  0  0  0
   -7.3311    9.8727   -8.0225 C   0  0  0  0  0  0  0  0  0  0  0  0
   -5.6734   13.4955  -12.1182 N   0  0  0  0  0  0  0  0  0  0  0  0
   -5.9616   10.4819   -7.7358 C   0  0  0  0  0  0  0  0  0  0  0  0
   -4.8034    9.7678   -8.0459 C   0  0  0  0  0  0  0  0  0  0  0  0
   -3.5615   10.3255   -7.7934 C   0  0  0  0  0  0  0  0  0  0  0  0
   -3.4526   11.6006   -7.2315 C   0  0  0  0  0  0  0  0  0  0  0  0
   -4.6161   12.3136   -6.9153 C   0  0  0  0  0  0  0  0  0  0  0  0
   -5.8662   11.7565   -7.1617 C   0  0  0  0  0  0  0  0  0  0  0  0
   -2.1079   12.1894   -6.9634 C   0  0  0  0  0  0  0  0  0  0  0  0
   -1.7834   13.4363   -6.4469 C   0  0  0  0  0  0  0  0  0  0  0  0
   -0.4443   13.4911   -6.3955 N   0  0  3  0  0  0  0  0  0  0  0  0
    0.1636   12.4174   -6.8067 N   0  0  0  0  0  0  0  0  0  0  0  0
   -0.8107   11.6018   -7.1804 C   0  0  0  0  0  0  0  0  0  0  0  0
    0.3735   14.6113   -5.9298 C   0  0  0  0  0  0  0  0  0  0  0  0
   -5.8857   14.5071  -13.1620 C   0  0  0  0  0  0  0  0  0  0  0  0
   -4.6042   14.8313  -13.9092 C   0  0  0  0  0  0  0  0  0  0  0  0
   -3.6374   15.2080  -12.9343 O   0  0  0  0  0  0  0  0  0  0  0  0
   -3.2854   14.1223  -12.1198 C   0  0  0  0  0  0  0  0  0  0  0  0
   -4.5109   13.8217  -11.2574 C   0  0  0  0  0  0  0  0  0  0  0  0
   -6.0481   12.2112   -9.8721 H   0  0  0  0  0  0  0  0  0  0  0  0
   -8.2018   10.0931  -13.8843 H   0  0  0  0  0  0  0  0  0  0  0  0
   -6.9404   12.2372  -14.0676 H   0  0  0  0  0  0  0  0  0  0  0  0
   -8.9313    8.1957  -11.8757 H   0  0  0  0  0  0  0  0  0  0  0  0
   -8.0292    9.5839   -7.2507 H   0  0  0  0  0  0  0  0  0  0  0  0
   -4.8756    8.7823   -8.4819 H   0  0  0  0  0  0  0  0  0  0  0  0
   -2.6674    9.7693   -8.0332 H   0  0  0  0  0  0  0  0  0  0  0  0
   -4.5421   13.2987   -6.4789 H   0  0  0  0  0  0  0  0  0  0  0  0
   -6.7619   12.3053   -6.9110 H   0  0  0  0  0  0  0  0  0  0  0  0
   -2.1713   14.2311   -7.1010 H   0  0  0  0  0  0  0  0  0  0  0  0
   -2.2073   13.5518   -5.4385 H   0  0  0  0  0  0  0  0  0  0  0  0
   -0.6522   10.6178   -7.5964 H   0  0  0  0  0  0  0  0  0  0  0  0
    1.4382   14.3462   -6.0082 H   0  0  0  0  0  0  0  0  0  0  0  0
    0.1696   15.4967   -6.5499 H   0  0  0  0  0  0  0  0  0  0  0  0
    0.1274   14.8336   -4.8810 H   0  0  0  0  0  0  0  0  0  0  0  0
   -6.6284   14.1271  -13.8790 H   0  0  0  0  0  0  0  0  0  0  0  0
   -6.2658   15.4268  -12.6932 H   0  0  0  0  0  0  0  0  0  0  0  0
   -4.2565   13.9474  -14.4640 H   0  0  0  0  0  0  0  0  0  0  0  0
   -4.7758   15.6607  -14.6111 H   0  0  0  0  0  0  0  0  0  0  0  0
   -3.0304   13.2488  -12.7378 H   0  0  0  0  0  0  0  0  0  0  0  0
   -2.4269   14.3849  -11.4842 H   0  0  0  0  0  0  0  0  0  0  0  0
   -4.7488   14.7031  -10.6438 H   0  0  0  0  0  0  0  0  0  0  0  0
   -4.2928   12.9662  -10.6013 H   0  0  0  0  0  0  0  0  0  0  0  0
  1  2  2  0  0  0  0
  1  4  1  0  0  0  0
  1 11  1  0  0  0  0
  2  6  1  0  0  0  0
  3  4  2  0  0  0  0
  3  5  1  0  0  0  0
  5  6  2  0  0  0  0
  5  9  1  0  0  0  0
  6  7  1  0  0  0  0
  7  8  2  0  0  0  0
  7 10  1  0  0  0  0
  8  9  1  0  0  0  0
 10 12  2  0  0  0  0
 11 24  1  0  0  0  0
 11 28  1  0  0  0  0
 12 13  1  0  0  0  0
 12 17  1  0  0  0  0
 13 14  2  0  0  0  0
 14 15  1  0  0  0  0
 15 16  1  0  0  0  0
 15 18  2  0  0  0  0
 16 17  2  0  0  0  0
 18 19  1  0  0  0  0
 18 22  1  0  0  0  0
 19 20  1  0  0  0  0
 20 21  1  0  0  0  0
 20 23  1  0  0  0  0
 21 22  2  0  0  0  0
 24 25  1  0  0  0  0
 25 26  1  0  0  0  0
 26 27  1  0  0  0  0
 27 28  1  0  0  0  0
  2 29  1  0  0  0  0
  3 30  1  0  0  0  0
  4 31  1  0  0  0  0
  9 32  1  0  0  0  0
 10 33  1  0  0  0  0
 13 34  1  0  0  0  0
 14 35  1  0  0  0  0
 16 36  1  0  0  0  0
 17 37  1  0  0  0  0
 19 38  1  0  0  0  0
 19 39  1  0  0  0  0
 22 40  1  0  0  0  0
 23 41  1  0  0  0  0
 23 42  1  0  0  0  0
 23 43  1  0  0  0  0
 24 44  1  0  0  0  0
 24 45  1  0  0  0  0
 25 46  1  0  0  0  0
 25 47  1  0  0  0  0
 27 48  1  0  0  0  0
 27 49  1  0  0  0  0
 28 50  1  0  0  0  0
 28 51  1  0  0  0  0
M  END
> <Name>
28

> <IC50[uM]>
30

$$$$
28
  -OEChem-05192314333D
 Structure written by MMmdl.
 51 55  0     0  0  0  0  0  0999 V2000
   -6.4084   12.3297  -11.9887 C   0  0  0  0  0  0  0  0  0  0  0  0
   -6.5165   11.7544  -10.7314 C   0  0  0  0  0  0  0  0  0  0  0  0
   -7.7418   10.5517  -13.0215 C   0  0  0  0  0  0  0  0  0  0  0  0
   -7.0245   11.7463  -13.1093 C   0  0  0  0  0  0  0  0  0  0  0  0
   -7.8268    9.9859  -11.7428 C   0  0  0  0  0  0  0  0  0  0  0  0
   -7.2396   10.5800  -10.6042 C   0  0  0  0  0  0  0  0  0  0  0  0
   -7.6095    9.7151   -9.5092 C   0  0  0  0  0  0  0  0  0  0  0  0
   -8.2849    8.7010   -9.9773 N   0  0  0  0  0  0  0  0  0  0  0  0
   -8.4373    8.8403  -11.2922 N   0  0  0  0  0  0  0  0  0  0  0  0
   -7.3311    9.8727   -8.0225 C   0  0  0  0  0  0  0  0  0  0  0  0
   -5.6734   13.4955  -12.1182 N   0  0  0  0  0  0  0  0  0  0  0  0
   -5.9616   10.4819   -7.7358 C   0  0  0  0  0  0  0  0  0  0  0  0
   -4.8034    9.7678   -8.0459 C   0  0  0  0  0  0  0  0  0  0  0  0
   -3.5615   10.3255   -7.7934 C   0  0  0  0  0  0  0  0  0  0  0  0
   -3.4526   11.6006   -7.2315 C   0  0  0  0  0  0  0  0  0  0  0  0
   -4.6161   12.3136   -6.9153 C   0  0  0  0  0  0  0  0  0  0  0  0
   -5.8662   11.7565   -7.1617 C   0  0  0  0  0  0  0  0  0  0  0  0
   -2.1079   12.1894   -6.9634 C   0  0  0  0  0  0  0  0  0  0  0  0
   -1.7834   13.4363   -6.4469 C   0  0  0  0  0  0  0  0  0  0  0  0
   -0.4443   13.4911   -6.3955 N   0  0  0  0  0  0  0  0  0  0  0  0
    0.1636   12.4174   -6.8067 N   0  0  0  0  0  0  0  0  0  0  0  0
   -0.8107   11.6018   -7.1804 C   0  0  0  0  0  0  0  0  0  0  0  0
    0.3735   14.6113   -5.9298 C   0  0  0  0  0  0  0  0  0  0  0  0
   -5.8857   14.5071  -13.1620 C   0  0  0  0  0  0  0  0  0  0  0  0
   -4.6042   14.8313  -13.9092 C   0  0  0  0  0  0  0  0  0  0  0  0
   -3.6374   15.2080  -12.9343 O   0  0  0  0  0  0  0  0  0  0  0  0
   -3.2854   14.1223  -12.1198 C   0  0  0  0  0  0  0  0  0  0  0  0
   -4.5109   13.8217  -11.2574 C   0  0  0  0  0  0  0  0  0  0  0  0
   -6.0481   12.2112   -9.8721 H   0  0  0  0  0  0  0  0  0  0  0  0
   -8.2018   10.0931  -13.8843 H   0  0  0  0  0  0  0  0  0  0  0  0
   -6.9404   12.2372  -14.0676 H   0  0  0  0  0  0  0  0  0  0  0  0
   -8.6336    7.9382   -9.4328 H   0  0  0  0  0  0  0  0  0  0  0  0
   -8.0292    9.5839   -7.2507 H   0  0  0  0  0  0  0  0  0  0  0  0
   -4.8756    8.7823   -8.4819 H   0  0  0  0  0  0  0  0  0  0  0  0
   -2.6674    9.7693   -8.0332 H   0  0  0  0  0  0  0  0  0  0  0  0
   -3.4498   12.0463   -8.2372 H   0  0  0  0  0  0  0  0  0  0  0  0
   -4.5421   13.2987   -6.4789 H   0  0  0  0  0  0  0  0  0  0  0  0
   -6.7619   12.3053   -6.9110 H   0  0  0  0  0  0  0  0  0  0  0  0
   -2.4737   14.2103   -6.1456 H   0  0  0  0  0  0  0  0  0  0  0  0
   -0.6522   10.6178   -7.5964 H   0  0  0  0  0  0  0  0  0  0  0  0
    1.4382   14.3462   -6.0082 H   0  0  0  0  0  0  0  0  0  0  0  0
    0.1696   15.4967   -6.5499 H   0  0  0  0  0  0  0  0  0  0  0  0
    0.1274   14.8336   -4.8810 H   0  0  0  0  0  0  0  0  0  0  0  0
   -6.6284   14.1271  -13.8790 H   0  0  0  0  0  0  0  0  0  0  0  0
   -6.2658   15.4268  -12.6932 H   0  0  0  0  0  0  0  0  0  0  0  0
   -4.2565   13.9474  -14.4640 H   0  0  0  0  0  0  0  0  0  0  0  0
   -4.7758   15.6607  -14.6111 H   0  0  0  0  0  0  0  0  0  0  0  0
   -3.0304   13.2488  -12.7378 H   0  0  0  0  0  0  0  0  0  0  0  0
   -2.4269   14.3849  -11.4842 H   0  0  0  0  0  0  0  0  0  0  0  0
   -4.7488   14.7031  -10.6438 H   0  0  0  0  0  0  0  0  0  0  0  0
   -4.2928   12.9662  -10.6013 H   0  0  0  0  0  0  0  0  0  0  0  0
  1  2  2  0  0  0  0
  1  4  1  0  0  0  0
  1 11  1  0  0  0  0
  2  6  1  0  0  0  0
  3  4  2  0  0  0  0
  3  5  1  0  0  0  0
  5  6  1  0  0  0  0
  5  9  2  0  0  0  0
  6  7  2  0  0  0  0
  7  8  1  0  0  0  0
  7 10  1  0  0  0  0
  8  9  1  0  0  0  0
 10 12  2  0  0  0  0
 11 24  1  0  0  0  0
 11 28  1  0  0  0  0
 12 13  1  0  0  0  0
 12 17  1  0  0  0  0
 13 14  2  0  0  0  0
 14 15  1  0  0  0  0
 15 16  1  0  0  0  0
 15 18  1  0  0  0  0
 16 17  2  0  0  0  0
 18 19  2  0  0  0  0
 18 22  1  0  0  0  0
 19 20  1  0  0  0  0
 20 21  1  0  0  0  0
 20 23  1  0  0  0  0
 21 22  2  0  0  0  0
 24 25  1  0  0  0  0
 25 26  1  0  0  0  0
 26 27  1  0  0  0  0
 27 28  1  0  0  0  0
  2 29  1  0  0  0  0
  3 30  1  0  0  0  0
  4 31  1  0  0  0  0
  8 32  1  0  0  0  0
 10 33  1  0  0  0  0
 13 34  1  0  0  0  0
 14 35  1  0  0  0  0
 15 36  1  0  0  0  0
 16 37  1  0  0  0  0
 17 38  1  0  0  0  0
 19 39  1  0  0  0  0
 22 40  1  0  0  0  0
 23 41  1  0  0  0  0
 23 42  1  0  0  0  0
 23 43  1  0  0  0  0
 24 44  1  0  0  0  0
 24 45  1  0  0  0  0
 25 46  1  0  0  0  0
 25 47  1  0  0  0  0
 27 48  1  0  0  0  0
 27 49  1  0  0  0  0
 28 50  1  0  0  0  0
 28 51  1  0  0  0  0
M  END
> <Name>
28

> <IC50[uM]>
30

$$$$
28
  -OEChem-05192314333D
 Structure written by MMmdl.
 51 55  0     0  0  0  0  0  0999 V2000
   -6.4084   12.3297  -11.9887 C   0  0  0  0  0  0  0  0  0  0  0  0
   -6.5165   11.7544  -10.7314 C   0  0  0  0  0  0  0  0  0  0  0  0
   -7.7418   10.5517  -13.0215 C   0  0  0  0  0  0  0  0  0  0  0  0
   -7.0245   11.7463  -13.1093 C   0  0  0  0  0  0  0  0  0  0  0  0
   -7.8268    9.9859  -11.7428 C   0  0  0  0  0  0  0  0  0  0  0  0
   -7.2396   10.5800  -10.6042 C   0  0  0  0  0  0  0  0  0  0  0  0
   -7.6095    9.7151   -9.5092 C   0  0  0  0  0  0  0  0  0  0  0  0
   -8.2849    8.7010   -9.9773 N   0  0  0  0  0  0  0  0  0  0  0  0
   -8.4373    8.8403  -11.2922 N   0  0  0  0  0  0  0  0  0  0  0  0
   -7.3311    9.8727   -8.0225 C   0  0  0  0  0  0  0  0  0  0  0  0
   -5.6734   13.4955  -12.1182 N   0  0  0  0  0  0  0  0  0  0  0  0
   -5.9616   10.4819   -7.7358 C   0  0  0  0  0  0  0  0  0  0  0  0
   -4.8034    9.7678   -8.0459 C   0  0  0  0  0  0  0  0  0  0  0  0
   -3.5615   10.3255   -7.7934 C   0  0  0  0  0  0  0  0  0  0  0  0
   -3.4526   11.6006   -7.2315 C   0  0  0  0  0  0  0  0  0  0  0  0
   -4.6161   12.3136   -6.9153 C   0  0  0  0  0  0  0  0  0  0  0  0
   -5.8662   11.7565   -7.1617 C   0  0  0  0  0  0  0  0  0  0  0  0
   -2.1079   12.1894   -6.9634 C   0  0  0  0  0  0  0  0  0  0  0  0
   -1.7834   13.4363   -6.4469 C   0  0  0  0  0  0  0  0  0  0  0  0
   -0.4443   13.4911   -6.3955 N   0  0  0  0  0  0  0  0  0  0  0  0
    0.1636   12.4174   -6.8067 N   0  0  0  0  0  0  0  0  0  0  0  0
   -0.8107   11.6018   -7.1804 C   0  0  0  0  0  0  0  0  0  0  0  0
    0.3735   14.6113   -5.9298 C   0  0  0  0  0  0  0  0  0  0  0  0
   -5.8857   14.5071  -13.1620 C   0  0  0  0  0  0  0  0  0  0  0  0
   -4.6042   14.8313  -13.9092 C   0  0  0  0  0  0  0  0  0  0  0  0
   -3.6374   15.2080  -12.9343 O   0  0  0  0  0  0  0  0  0  0  0  0
   -3.2854   14.1223  -12.1198 C   0  0  0  0  0  0  0  0  0  0  0  0
   -4.5109   13.8217  -11.2574 C   0  0  0  0  0  0  0  0  0  0  0  0
   -6.0481   12.2112   -9.8721 H   0  0  0  0  0  0  0  0  0  0  0  0
   -8.2018   10.0931  -13.8843 H   0  0  0  0  0  0  0  0  0  0  0  0
   -6.9404   12.2372  -14.0676 H   0  0  0  0  0  0  0  0  0  0  0  0
   -8.9313    8.1957  -11.8757 H   0  0  0  0  0  0  0  0  0  0  0  0
   -8.0292    9.5839   -7.2507 H   0  0  0  0  0  0  0  0  0  0  0  0
   -4.8756    8.7823   -8.4819 H   0  0  0  0  0  0  0  0  0  0  0  0
   -2.6674    9.7693   -8.0332 H   0  0  0  0  0  0  0  0  0  0  0  0
   -3.4498   12.0463   -8.2372 H   0  0  0  0  0  0  0  0  0  0  0  0
   -4.5421   13.2987   -6.4789 H   0  0  0  0  0  0  0  0  0  0  0  0
   -6.7619   12.3053   -6.9110 H   0  0  0  0  0  0  0  0  0  0  0  0
   -2.4737   14.2103   -6.1456 H   0  0  0  0  0  0  0  0  0  0  0  0
   -0.6522   10.6178   -7.5964 H   0  0  0  0  0  0  0  0  0  0  0  0
    1.4382   14.3462   -6.0082 H   0  0  0  0  0  0  0  0  0  0  0  0
    0.1696   15.4967   -6.5499 H   0  0  0  0  0  0  0  0  0  0  0  0
    0.1274   14.8336   -4.8810 H   0  0  0  0  0  0  0  0  0  0  0  0
   -6.6284   14.1271  -13.8790 H   0  0  0  0  0  0  0  0  0  0  0  0
   -6.2658   15.4268  -12.6932 H   0  0  0  0  0  0  0  0  0  0  0  0
   -4.2565   13.9474  -14.4640 H   0  0  0  0  0  0  0  0  0  0  0  0
   -4.7758   15.6607  -14.6111 H   0  0  0  0  0  0  0  0  0  0  0  0
   -3.0304   13.2488  -12.7378 H   0  0  0  0  0  0  0  0  0  0  0  0
   -2.4269   14.3849  -11.4842 H   0  0  0  0  0  0  0  0  0  0  0  0
   -4.7488   14.7031  -10.6438 H   0  0  0  0  0  0  0  0  0  0  0  0
   -4.2928   12.9662  -10.6013 H   0  0  0  0  0  0  0  0  0  0  0  0
  1  2  2  0  0  0  0
  1  4  1  0  0  0  0
  1 11  1  0  0  0  0
  2  6  1  0  0  0  0
  3  4  2  0  0  0  0
  3  5  1  0  0  0  0
  5  6  2  0  0  0  0
  5  9  1  0  0  0  0
  6  7  1  0  0  0  0
  7  8  2  0  0  0  0
  7 10  1  0  0  0  0
  8  9  1  0  0  0  0
 10 12  2  0  0  0  0
 11 24  1  0  0  0  0
 11 28  1  0  0  0  0
 12 13  1  0  0  0  0
 12 17  1  0  0  0  0
 13 14  2  0  0  0  0
 14 15  1  0  0  0  0
 15 16  1  0  0  0  0
 15 18  1  0  0  0  0
 16 17  2  0  0  0  0
 18 19  2  0  0  0  0
 18 22  1  0  0  0  0
 19 20  1  0  0  0  0
 20 21  1  0  0  0  0
 20 23  1  0  0  0  0
 21 22  2  0  0  0  0
 24 25  1  0  0  0  0
 25 26  1  0  0  0  0
 26 27  1  0  0  0  0
 27 28  1  0  0  0  0
  2 29  1  0  0  0  0
  3 30  1  0  0  0  0
  4 31  1  0  0  0  0
  9 32  1  0  0  0  0
 10 33  1  0  0  0  0
 13 34  1  0  0  0  0
 14 35  1  0  0  0  0
 15 36  1  0  0  0  0
 16 37  1  0  0  0  0
 17 38  1  0  0  0  0
 19 39  1  0  0  0  0
 22 40  1  0  0  0  0
 23 41  1  0  0  0  0
 23 42  1  0  0  0  0
 23 43  1  0  0  0  0
 24 44  1  0  0  0  0
 24 45  1  0  0  0  0
 25 46  1  0  0  0  0
 25 47  1  0  0  0  0
 27 48  1  0  0  0  0
 27 49  1  0  0  0  0
 28 50  1  0  0  0  0
 28 51  1  0  0  0  0
M  END
> <Name>
28

> <IC50[uM]>
30

$$$$
28
  -OEChem-05192314333D
 Structure written by MMmdl.
 51 55  0     0  0  0  0  0  0999 V2000
   -6.4084   12.3297  -11.9887 C   0  0  0  0  0  0  0  0  0  0  0  0
   -6.5165   11.7544  -10.7314 C   0  0  0  0  0  0  0  0  0  0  0  0
   -7.7418   10.5517  -13.0215 C   0  0  0  0  0  0  0  0  0  0  0  0
   -7.0245   11.7463  -13.1093 C   0  0  0  0  0  0  0  0  0  0  0  0
   -7.8268    9.9859  -11.7428 C   0  0  0  0  0  0  0  0  0  0  0  0
   -7.2396   10.5800  -10.6042 C   0  0  0  0  0  0  0  0  0  0  0  0
   -7.6095    9.7151   -9.5092 C   0  0  0  0  0  0  0  0  0  0  0  0
   -8.2849    8.7010   -9.9773 N   0  0  0  0  0  0  0  0  0  0  0  0
   -8.4373    8.8403  -11.2922 N   0  0  0  0  0  0  0  0  0  0  0  0
   -7.3311    9.8727   -8.0225 C   0  0  0  0  0  0  0  0  0  0  0  0
   -5.6734   13.4955  -12.1182 N   0  0  0  0  0  0  0  0  0  0  0  0
   -5.9616   10.4819   -7.7358 C   0  0  0  0  0  0  0  0  0  0  0  0
   -4.8034    9.7678   -8.0459 C   0  0  0  0  0  0  0  0  0  0  0  0
   -3.5615   10.3255   -7.7934 C   0  0  0  0  0  0  0  0  0  0  0  0
   -3.4526   11.6006   -7.2315 C   0  0  0  0  0  0  0  0  0  0  0  0
   -4.6161   12.3136   -6.9153 C   0  0  0  0  0  0  0  0  0  0  0  0
   -5.8662   11.7565   -7.1617 C   0  0  0  0  0  0  0  0  0  0  0  0
   -2.1079   12.1894   -6.9634 C   0  0  0  0  0  0  0  0  0  0  0  0
   -1.7834   13.4363   -6.4469 C   0  0  0  0  0  0  0  0  0  0  0  0
   -0.4443   13.4911   -6.3955 N   0  0  0  0  0  0  0  0  0  0  0  0
    0.1636   12.4174   -6.8067 N   0  0  0  0  0  0  0  0  0  0  0  0
   -0.8107   11.6018   -7.1804 C   0  0  0  0  0  0  0  0  0  0  0  0
    0.3735   14.6113   -5.9298 C   0  0  0  0  0  0  0  0  0  0  0  0
   -5.8857   14.5071  -13.1620 C   0  0  0  0  0  0  0  0  0  0  0  0
   -4.6042   14.8313  -13.9092 C   0  0  0  0  0  0  0  0  0  0  0  0
   -3.6374   15.2080  -12.9343 O   0  0  0  0  0  0  0  0  0  0  0  0
   -3.2854   14.1223  -12.1198 C   0  0  0  0  0  0  0  0  0  0  0  0
   -4.5109   13.8217  -11.2574 C   0  0  0  0  0  0  0  0  0  0  0  0
   -6.0481   12.2112   -9.8721 H   0  0  0  0  0  0  0  0  0  0  0  0
   -8.2018   10.0931  -13.8843 H   0  0  0  0  0  0  0  0  0  0  0  0
   -6.9404   12.2372  -14.0676 H   0  0  0  0  0  0  0  0  0  0  0  0
   -8.6336    7.9382   -9.4328 H   0  0  0  0  0  0  0  0  0  0  0  0
   -8.0292    9.5839   -7.2507 H   0  0  0  0  0  0  0  0  0  0  0  0
   -4.8756    8.7823   -8.4819 H   0  0  0  0  0  0  0  0  0  0  0  0
   -2.6674    9.7693   -8.0332 H   0  0  0  0  0  0  0  0  0  0  0  0
   -4.5421   13.2987   -6.4789 H   0  0  0  0  0  0  0  0  0  0  0  0
   -6.3960   12.4483   -7.8331 H   0  0  0  0  0  0  0  0  0  0  0  0
   -6.3899   11.7102   -6.1955 H   0  0  0  0  0  0  0  0  0  0  0  0
   -2.4737   14.2103   -6.1456 H   0  0  0  0  0  0  0  0  0  0  0  0
   -0.6522   10.6178   -7.5964 H   0  0  0  0  0  0  0  0  0  0  0  0
    1.4382   14.3462   -6.0082 H   0  0  0  0  0  0  0  0  0  0  0  0
    0.1696   15.4967   -6.5499 H   0  0  0  0  0  0  0  0  0  0  0  0
    0.1274   14.8336   -4.8810 H   0  0  0  0  0  0  0  0  0  0  0  0
   -6.6284   14.1271  -13.8790 H   0  0  0  0  0  0  0  0  0  0  0  0
   -6.2658   15.4268  -12.6932 H   0  0  0  0  0  0  0  0  0  0  0  0
   -4.2565   13.9474  -14.4640 H   0  0  0  0  0  0  0  0  0  0  0  0
   -4.7758   15.6607  -14.6111 H   0  0  0  0  0  0  0  0  0  0  0  0
   -3.0304   13.2488  -12.7378 H   0  0  0  0  0  0  0  0  0  0  0  0
   -2.4269   14.3849  -11.4842 H   0  0  0  0  0  0  0  0  0  0  0  0
   -4.7488   14.7031  -10.6438 H   0  0  0  0  0  0  0  0  0  0  0  0
   -4.2928   12.9662  -10.6013 H   0  0  0  0  0  0  0  0  0  0  0  0
  1  2  2  0  0  0  0
  1  4  1  0  0  0  0
  1 11  1  0  0  0  0
  2  6  1  0  0  0  0
  3  4  2  0  0  0  0
  3  5  1  0  0  0  0
  5  6  1  0  0  0  0
  5  9  2  0  0  0  0
  6  7  2  0  0  0  0
  7  8  1  0  0  0  0
  7 10  1  0  0  0  0
  8  9  1  0  0  0  0
 10 12  2  3  0  0  0
 11 24  1  0  0  0  0
 11 28  1  0  0  0  0
 12 13  1  0  0  0  0
 12 17  1  0  0  0  0
 13 14  2  0  0  0  0
 14 15  1  0  0  0  0
 15 16  2  0  0  0  0
 15 18  1  0  0  0  0
 16 17  1  0  0  0  0
 18 19  2  0  0  0  0
 18 22  1  0  0  0  0
 19 20  1  0  0  0  0
 20 21  1  0  0  0  0
 20 23  1  0  0  0  0
 21 22  2  0  0  0  0
 24 25  1  0  0  0  0
 25 26  1  0  0  0  0
 26 27  1  0  0  0  0
 27 28  1  0  0  0  0
  2 29  1  0  0  0  0
  3 30  1  0  0  0  0
  4 31  1  0  0  0  0
  8 32  1  0  0  0  0
 10 33  1  0  0  0  0
 13 34  1  0  0  0  0
 14 35  1  0  0  0  0
 16 36  1  0  0  0  0
 17 37  1  0  0  0  0
 17 38  1  0  0  0  0
 19 39  1  0  0  0  0
 22 40  1  0  0  0  0
 23 41  1  0  0  0  0
 23 42  1  0  0  0  0
 23 43  1  0  0  0  0
 24 44  1  0  0  0  0
 24 45  1  0  0  0  0
 25 46  1  0  0  0  0
 25 47  1  0  0  0  0
 27 48  1  0  0  0  0
 27 49  1  0  0  0  0
 28 50  1  0  0  0  0
 28 51  1  0  0  0  0
M  END
> <Name>
28

> <IC50[uM]>
30

$$$$
28
  -OEChem-05192314333D
 Structure written by MMmdl.
 51 55  0     0  0  0  0  0  0999 V2000
   -6.4084   12.3297  -11.9887 C   0  0  0  0  0  0  0  0  0  0  0  0
   -6.5165   11.7544  -10.7314 C   0  0  0  0  0  0  0  0  0  0  0  0
   -7.7418   10.5517  -13.0215 C   0  0  0  0  0  0  0  0  0  0  0  0
   -7.0245   11.7463  -13.1093 C   0  0  0  0  0  0  0  0  0  0  0  0
   -7.8268    9.9859  -11.7428 C   0  0  0  0  0  0  0  0  0  0  0  0
   -7.2396   10.5800  -10.6042 C   0  0  0  0  0  0  0  0  0  0  0  0
   -7.6095    9.7151   -9.5092 C   0  0  0  0  0  0  0  0  0  0  0  0
   -8.2849    8.7010   -9.9773 N   0  0  0  0  0  0  0  0  0  0  0  0
   -8.4373    8.8403  -11.2922 N   0  0  0  0  0  0  0  0  0  0  0  0
   -7.3311    9.8727   -8.0225 C   0  0  0  0  0  0  0  0  0  0  0  0
   -5.6734   13.4955  -12.1182 N   0  0  0  0  0  0  0  0  0  0  0  0
   -5.9616   10.4819   -7.7358 C   0  0  0  0  0  0  0  0  0  0  0  0
   -4.8034    9.7678   -8.0459 C   0  0  0  0  0  0  0  0  0  0  0  0
   -3.5615   10.3255   -7.7934 C   0  0  0  0  0  0  0  0  0  0  0  0
   -3.4526   11.6006   -7.2315 C   0  0  0  0  0  0  0  0  0  0  0  0
   -4.6161   12.3136   -6.9153 C   0  0  0  0  0  0  0  0  0  0  0  0
   -5.8662   11.7565   -7.1617 C   0  0  0  0  0  0  0  0  0  0  0  0
   -2.1079   12.1894   -6.9634 C   0  0  0  0  0  0  0  0  0  0  0  0
   -1.7834   13.4363   -6.4469 C   0  0  0  0  0  0  0  0  0  0  0  0
   -0.4443   13.4911   -6.3955 N   0  0  0  0  0  0  0  0  0  0  0  0
    0.1636   12.4174   -6.8067 N   0  0  0  0  0  0  0  0  0  0  0  0
   -0.8107   11.6018   -7.1804 C   0  0  0  0  0  0  0  0  0  0  0  0
    0.3735   14.6113   -5.9298 C   0  0  0  0  0  0  0  0  0  0  0  0
   -5.8857   14.5071  -13.1620 C   0  0  0  0  0  0  0  0  0  0  0  0
   -4.6042   14.8313  -13.9092 C   0  0  0  0  0  0  0  0  0  0  0  0
   -3.6374   15.2080  -12.9343 O   0  0  0  0  0  0  0  0  0  0  0  0
   -3.2854   14.1223  -12.1198 C   0  0  0  0  0  0  0  0  0  0  0  0
   -4.5109   13.8217  -11.2574 C   0  0  0  0  0  0  0  0  0  0  0  0
   -6.0481   12.2112   -9.8721 H   0  0  0  0  0  0  0  0  0  0  0  0
   -8.2018   10.0931  -13.8843 H   0  0  0  0  0  0  0  0  0  0  0  0
   -6.9404   12.2372  -14.0676 H   0  0  0  0  0  0  0  0  0  0  0  0
   -8.9313    8.1957  -11.8757 H   0  0  0  0  0  0  0  0  0  0  0  0
   -8.0292    9.5839   -7.2507 H   0  0  0  0  0  0  0  0  0  0  0  0
   -4.8756    8.7823   -8.4819 H   0  0  0  0  0  0  0  0  0  0  0  0
   -2.6674    9.7693   -8.0332 H   0  0  0  0  0  0  0  0  0  0  0  0
   -4.5421   13.2987   -6.4789 H   0  0  0  0  0  0  0  0  0  0  0  0
   -6.3960   12.4483   -7.8331 H   0  0  0  0  0  0  0  0  0  0  0  0
   -6.3899   11.7102   -6.1955 H   0  0  0  0  0  0  0  0  0  0  0  0
   -2.4737   14.2103   -6.1456 H   0  0  0  0  0  0  0  0  0  0  0  0
   -0.6522   10.6178   -7.5964 H   0  0  0  0  0  0  0  0  0  0  0  0
    1.4382   14.3462   -6.0082 H   0  0  0  0  0  0  0  0  0  0  0  0
    0.1696   15.4967   -6.5499 H   0  0  0  0  0  0  0  0  0  0  0  0
    0.1274   14.8336   -4.8810 H   0  0  0  0  0  0  0  0  0  0  0  0
   -6.6284   14.1271  -13.8790 H   0  0  0  0  0  0  0  0  0  0  0  0
   -6.2658   15.4268  -12.6932 H   0  0  0  0  0  0  0  0  0  0  0  0
   -4.2565   13.9474  -14.4640 H   0  0  0  0  0  0  0  0  0  0  0  0
   -4.7758   15.6607  -14.6111 H   0  0  0  0  0  0  0  0  0  0  0  0
   -3.0304   13.2488  -12.7378 H   0  0  0  0  0  0  0  0  0  0  0  0
   -2.4269   14.3849  -11.4842 H   0  0  0  0  0  0  0  0  0  0  0  0
   -4.7488   14.7031  -10.6438 H   0  0  0  0  0  0  0  0  0  0  0  0
   -4.2928   12.9662  -10.6013 H   0  0  0  0  0  0  0  0  0  0  0  0
  1  2  2  0  0  0  0
  1  4  1  0  0  0  0
  1 11  1  0  0  0  0
  2  6  1  0  0  0  0
  3  4  2  0  0  0  0
  3  5  1  0  0  0  0
  5  6  2  0  0  0  0
  5  9  1  0  0  0  0
  6  7  1  0  0  0  0
  7  8  2  0  0  0  0
  7 10  1  0  0  0  0
  8  9  1  0  0  0  0
 10 12  2  3  0  0  0
 11 24  1  0  0  0  0
 11 28  1  0  0  0  0
 12 13  1  0  0  0  0
 12 17  1  0  0  0  0
 13 14  2  0  0  0  0
 14 15  1  0  0  0  0
 15 16  2  0  0  0  0
 15 18  1  0  0  0  0
 16 17  1  0  0  0  0
 18 19  2  0  0  0  0
 18 22  1  0  0  0  0
 19 20  1  0  0  0  0
 20 21  1  0  0  0  0
 20 23  1  0  0  0  0
 21 22  2  0  0  0  0
 24 25  1  0  0  0  0
 25 26  1  0  0  0  0
 26 27  1  0  0  0  0
 27 28  1  0  0  0  0
  2 29  1  0  0  0  0
  3 30  1  0  0  0  0
  4 31  1  0  0  0  0
  9 32  1  0  0  0  0
 10 33  1  0  0  0  0
 13 34  1  0  0  0  0
 14 35  1  0  0  0  0
 16 36  1  0  0  0  0
 17 37  1  0  0  0  0
 17 38  1  0  0  0  0
 19 39  1  0  0  0  0
 22 40  1  0  0  0  0
 23 41  1  0  0  0  0
 23 42  1  0  0  0  0
 23 43  1  0  0  0  0
 24 44  1  0  0  0  0
 24 45  1  0  0  0  0
 25 46  1  0  0  0  0
 25 47  1  0  0  0  0
 27 48  1  0  0  0  0
 27 49  1  0  0  0  0
 28 50  1  0  0  0  0
 28 51  1  0  0  0  0
M  END
> <Name>
28

> <IC50[uM]>
30

$$$$
28
  -OEChem-05192314333D
 Structure written by MMmdl.
 51 55  0     1  0  0  0  0  0999 V2000
   -6.4084   12.3297  -11.9887 C   0  0  0  0  0  0  0  0  0  0  0  0
   -6.5165   11.7544  -10.7314 C   0  0  0  0  0  0  0  0  0  0  0  0
   -7.7418   10.5517  -13.0215 C   0  0  0  0  0  0  0  0  0  0  0  0
   -7.0245   11.7463  -13.1093 C   0  0  0  0  0  0  0  0  0  0  0  0
   -7.8268    9.9859  -11.7428 C   0  0  0  0  0  0  0  0  0  0  0  0
   -7.2396   10.5800  -10.6042 C   0  0  0  0  0  0  0  0  0  0  0  0
   -7.6095    9.7151   -9.5092 C   0  0  0  0  0  0  0  0  0  0  0  0
   -8.2849    8.7010   -9.9773 N   0  0  0  0  0  0  0  0  0  0  0  0
   -8.4373    8.8403  -11.2922 N   0  0  0  0  0  0  0  0  0  0  0  0
   -7.3311    9.8727   -8.0225 C   0  0  0  0  0  0  0  0  0  0  0  0
   -5.6734   13.4955  -12.1182 N   0  0  0  0  0  0  0  0  0  0  0  0
   -5.9616   10.4819   -7.7358 C   0  0  0  0  0  0  0  0  0  0  0  0
   -4.8034    9.7678   -8.0459 C   0  0  0  0  0  0  0  0  0  0  0  0
   -3.5615   10.3255   -7.7934 C   0  0  0  0  0  0  0  0  0  0  0  0
   -3.4526   11.6006   -7.2315 C   0  0  0  0  0  0  0  0  0  0  0  0
   -4.6161   12.3136   -6.9153 C   0  0  0  0  0  0  0  0  0  0  0  0
   -5.8662   11.7565   -7.1617 C   0  0  0  0  0  0  0  0  0  0  0  0
   -2.1079   12.1894   -6.9634 C   0  0  3  0  0  0  0  0  0  0  0  0
   -1.7834   13.4363   -6.4469 C   0  0  0  0  0  0  0  0  0  0  0  0
   -0.4443   13.4911   -6.3955 N   0  0  3  0  0  0  0  0  0  0  0  0
    0.1636   12.4174   -6.8067 N   0  0  0  0  0  0  0  0  0  0  0  0
   -0.8107   11.6018   -7.1804 C   0  0  0  0  0  0  0  0  0  0  0  0
    0.3735   14.6113   -5.9298 C   0  0  0  0  0  0  0  0  0  0  0  0
   -5.8857   14.5071  -13.1620 C   0  0  0  0  0  0  0  0  0  0  0  0
   -4.6042   14.8313  -13.9092 C   0  0  0  0  0  0  0  0  0  0  0  0
   -3.6374   15.2080  -12.9343 O   0  0  0  0  0  0  0  0  0  0  0  0
   -3.2854   14.1223  -12.1198 C   0  0  0  0  0  0  0  0  0  0  0  0
   -4.5109   13.8217  -11.2574 C   0  0  0  0  0  0  0  0  0  0  0  0
   -6.0481   12.2112   -9.8721 H   0  0  0  0  0  0  0  0  0  0  0  0
   -8.2018   10.0931  -13.8843 H   0  0  0  0  0  0  0  0  0  0  0  0
   -6.9404   12.2372  -14.0676 H   0  0  0  0  0  0  0  0  0  0  0  0
   -8.0292    9.5839   -7.2507 H   0  0  0  0  0  0  0  0  0  0  0  0
   -4.8756    8.7823   -8.4819 H   0  0  0  0  0  0  0  0  0  0  0  0
   -2.6674    9.7693   -8.0332 H   0  0  0  0  0  0  0  0  0  0  0  0
   -4.5421   13.2987   -6.4789 H   0  0  0  0  0  0  0  0  0  0  0  0
   -6.7619   12.3053   -6.9110 H   0  0  0  0  0  0  0  0  0  0  0  0
   -2.1274   11.7722   -5.9458 H   0  0  0  0  0  0  0  0  0  0  0  0
   -2.1713   14.2311   -7.1010 H   0  0  0  0  0  0  0  0  0  0  0  0
   -2.2073   13.5518   -5.4385 H   0  0  0  0  0  0  0  0  0  0  0  0
   -0.6522   10.6178   -7.5964 H   0  0  0  0  0  0  0  0  0  0  0  0
    1.4382   14.3462   -6.0082 H   0  0  0  0  0  0  0  0  0  0  0  0
    0.1696   15.4967   -6.5499 H   0  0  0  0  0  0  0  0  0  0  0  0
    0.1274   14.8336   -4.8810 H   0  0  0  0  0  0  0  0  0  0  0  0
   -6.6284   14.1271  -13.8790 H   0  0  0  0  0  0  0  0  0  0  0  0
   -6.2658   15.4268  -12.6932 H   0  0  0  0  0  0  0  0  0  0  0  0
   -4.2565   13.9474  -14.4640 H   0  0  0  0  0  0  0  0  0  0  0  0
   -4.7758   15.6607  -14.6111 H   0  0  0  0  0  0  0  0  0  0  0  0
   -3.0304   13.2488  -12.7378 H   0  0  0  0  0  0  0  0  0  0  0  0
   -2.4269   14.3849  -11.4842 H   0  0  0  0  0  0  0  0  0  0  0  0
   -4.7488   14.7031  -10.6438 H   0  0  0  0  0  0  0  0  0  0  0  0
   -4.2928   12.9662  -10.6013 H   0  0  0  0  0  0  0  0  0  0  0  0
  1  2  2  0  0  0  0
  1  4  1  0  0  0  0
  1 11  1  0  0  0  0
  2  6  1  0  0  0  0
  3  4  2  0  0  0  0
  3  5  1  0  0  0  0
  5  6  2  0  0  0  0
  5  9  1  0  0  0  0
  6  7  1  0  0  0  0
  7  8  1  0  0  0  0
  7 10  2  3  0  0  0
  8  9  2  0  0  0  0
 10 12  1  0  0  0  0
 11 24  1  0  0  0  0
 11 28  1  0  0  0  0
 12 13  2  0  0  0  0
 12 17  1  0  0  0  0
 13 14  1  0  0  0  0
 14 15  2  0  0  0  0
 15 16  1  0  0  0  0
 15 18  1  0  0  0  0
 16 17  2  0  0  0  0
 18 19  1  0  0  0  0
 18 22  1  0  0  0  0
 19 20  1  0  0  0  0
 20 21  1  0  0  0  0
 20 23  1  0  0  0  0
 21 22  2  0  0  0  0
 24 25  1  0  0  0  0
 25 26  1  0  0  0  0
 26 27  1  0  0  0  0
 27 28  1  0  0  0  0
  2 29  1  0  0  0  0
  3 30  1  0  0  0  0
  4 31  1  0  0  0  0
 10 32  1  0  0  0  0
 13 33  1  0  0  0  0
 14 34  1  0  0  0  0
 16 35  1  0  0  0  0
 17 36  1  0  0  0  0
 18 37  1  0  0  0  0
 19 38  1  0  0  0  0
 19 39  1  0  0  0  0
 22 40  1  0  0  0  0
 23 41  1  0  0  0  0
 23 42  1  0  0  0  0
 23 43  1  0  0  0  0
 24 44  1  0  0  0  0
 24 45  1  0  0  0  0
 25 46  1  0  0  0  0
 25 47  1  0  0  0  0
 27 48  1  0  0  0  0
 27 49  1  0  0  0  0
 28 50  1  0  0  0  0
 28 51  1  0  0  0  0
M  END
> <Name>
28

> <IC50[uM]>
30

$$$$
28
  -OEChem-05192314333D
 Structure written by MMmdl.
 51 55  0     1  0  0  0  0  0999 V2000
   -6.4084   12.3297  -11.9887 C   0  0  0  0  0  0  0  0  0  0  0  0
   -6.5165   11.7544  -10.7314 C   0  0  0  0  0  0  0  0  0  0  0  0
   -7.7418   10.5517  -13.0215 C   0  0  0  0  0  0  0  0  0  0  0  0
   -7.0245   11.7463  -13.1093 C   0  0  0  0  0  0  0  0  0  0  0  0
   -7.8268    9.9859  -11.7428 C   0  0  0  0  0  0  0  0  0  0  0  0
   -7.2396   10.5800  -10.6042 C   0  0  0  0  0  0  0  0  0  0  0  0
   -7.6095    9.7151   -9.5092 C   0  0  0  0  0  0  0  0  0  0  0  0
   -8.2849    8.7010   -9.9773 N   0  0  0  0  0  0  0  0  0  0  0  0
   -8.4373    8.8403  -11.2922 N   0  0  0  0  0  0  0  0  0  0  0  0
   -7.3311    9.8727   -8.0225 C   0  0  0  0  0  0  0  0  0  0  0  0
   -5.6734   13.4955  -12.1182 N   0  0  0  0  0  0  0  0  0  0  0  0
   -5.9616   10.4819   -7.7358 C   0  0  0  0  0  0  0  0  0  0  0  0
   -4.8034    9.7678   -8.0459 C   0  0  0  0  0  0  0  0  0  0  0  0
   -3.5615   10.3255   -7.7934 C   0  0  0  0  0  0  0  0  0  0  0  0
   -3.4526   11.6006   -7.2315 C   0  0  0  0  0  0  0  0  0  0  0  0
   -4.6161   12.3136   -6.9153 C   0  0  0  0  0  0  0  0  0  0  0  0
   -5.8662   11.7565   -7.1617 C   0  0  0  0  0  0  0  0  0  0  0  0
   -2.1079   12.1894   -6.9634 C   0  0  0  0  0  0  0  0  0  0  0  0
   -1.7834   13.4363   -6.4469 C   0  0  0  0  0  0  0  0  0  0  0  0
   -0.4443   13.4911   -6.3955 N   0  0  3  0  0  0  0  0  0  0  0  0
    0.1636   12.4174   -6.8067 N   0  0  0  0  0  0  0  0  0  0  0  0
   -0.8107   11.6018   -7.1804 C   0  0  0  0  0  0  0  0  0  0  0  0
    0.3735   14.6113   -5.9298 C   0  0  0  0  0  0  0  0  0  0  0  0
   -5.8857   14.5071  -13.1620 C   0  0  0  0  0  0  0  0  0  0  0  0
   -4.6042   14.8313  -13.9092 C   0  0  0  0  0  0  0  0  0  0  0  0
   -3.6374   15.2080  -12.9343 O   0  0  0  0  0  0  0  0  0  0  0  0
   -3.2854   14.1223  -12.1198 C   0  0  0  0  0  0  0  0  0  0  0  0
   -4.5109   13.8217  -11.2574 C   0  0  0  0  0  0  0  0  0  0  0  0
   -6.0481   12.2112   -9.8721 H   0  0  0  0  0  0  0  0  0  0  0  0
   -8.2018   10.0931  -13.8843 H   0  0  0  0  0  0  0  0  0  0  0  0
   -6.9404   12.2372  -14.0676 H   0  0  0  0  0  0  0  0  0  0  0  0
   -8.0292    9.5839   -7.2507 H   0  0  0  0  0  0  0  0  0  0  0  0
   -4.8756    8.7823   -8.4819 H   0  0  0  0  0  0  0  0  0  0  0  0
   -2.6674    9.7693   -8.0332 H   0  0  0  0  0  0  0  0  0  0  0  0
   -4.5421   13.2987   -6.4789 H   0  0  0  0  0  0  0  0  0  0  0  0
   -6.7619   12.3053   -6.9110 H   0  0  0  0  0  0  0  0  0  0  0  0
   -2.4737   14.2103   -6.1456 H   0  0  0  0  0  0  0  0  0  0  0  0
    0.7644   12.6259   -7.5784 H   0  0  0  0  0  0  0  0  0  0  0  0
   -0.7391   10.6706   -6.5993 H   0  0  0  0  0  0  0  0  0  0  0  0
   -0.6959   11.3758   -8.2508 H   0  0  0  0  0  0  0  0  0  0  0  0
    1.4383   14.3476   -6.0117 H   0  0  0  0  0  0  0  0  0  0  0  0
    0.1668   15.4977   -6.5475 H   0  0  0  0  0  0  0  0  0  0  0  0
    0.1301   14.8312   -4.8799 H   0  0  0  0  0  0  0  0  0  0  0  0
   -6.6284   14.1271  -13.8790 H   0  0  0  0  0  0  0  0  0  0  0  0
   -6.2658   15.4268  -12.6932 H   0  0  0  0  0  0  0  0  0  0  0  0
   -4.2565   13.9474  -14.4640 H   0  0  0  0  0  0  0  0  0  0  0  0
   -4.7758   15.6607  -14.6111 H   0  0  0  0  0  0  0  0  0  0  0  0
   -3.0304   13.2488  -12.7378 H   0  0  0  0  0  0  0  0  0  0  0  0
   -2.4269   14.3849  -11.4842 H   0  0  0  0  0  0  0  0  0  0  0  0
   -4.7488   14.7031  -10.6438 H   0  0  0  0  0  0  0  0  0  0  0  0
   -4.2928   12.9662  -10.6013 H   0  0  0  0  0  0  0  0  0  0  0  0
  1  2  2  0  0  0  0
  1  4  1  0  0  0  0
  1 11  1  0  0  0  0
  2  6  1  0  0  0  0
  3  4  2  0  0  0  0
  3  5  1  0  0  0  0
  5  6  2  0  0  0  0
  5  9  1  0  0  0  0
  6  7  1  0  0  0  0
  7  8  1  0  0  0  0
  7 10  2  3  0  0  0
  8  9  2  0  0  0  0
 10 12  1  0  0  0  0
 11 24  1  0  0  0  0
 11 28  1  0  0  0  0
 12 13  2  0  0  0  0
 12 17  1  0  0  0  0
 13 14  1  0  0  0  0
 14 15  2  0  0  0  0
 15 16  1  0  0  0  0
 15 18  1  0  0  0  0
 16 17  2  0  0  0  0
 18 19  2  0  0  0  0
 18 22  1  0  0  0  0
 19 20  1  0  0  0  0
 20 21  1  0  0  0  0
 20 23  1  0  0  0  0
 21 22  1  0  0  0  0
 24 25  1  0  0  0  0
 25 26  1  0  0  0  0
 26 27  1  0  0  0  0
 27 28  1  0  0  0  0
  2 29  1  0  0  0  0
  3 30  1  0  0  0  0
  4 31  1  0  0  0  0
 10 32  1  0  0  0  0
 13 33  1  0  0  0  0
 14 34  1  0  0  0  0
 16 35  1  0  0  0  0
 17 36  1  0  0  0  0
 19 37  1  0  0  0  0
 21 38  1  0  0  0  0
 22 39  1  0  0  0  0
 22 40  1  0  0  0  0
 23 41  1  0  0  0  0
 23 42  1  0  0  0  0
 23 43  1  0  0  0  0
 24 44  1  0  0  0  0
 24 45  1  0  0  0  0
 25 46  1  0  0  0  0
 25 47  1  0  0  0  0
 27 48  1  0  0  0  0
 27 49  1  0  0  0  0
 28 50  1  0  0  0  0
 28 51  1  0  0  0  0
M  END
> <Name>
28

> <IC50[uM]>
30

$$$$
28
  -OEChem-05192314333D
 Structure written by MMmdl.
 51 55  0     1  0  0  0  0  0999 V2000
   -6.4084   12.3297  -11.9887 C   0  0  0  0  0  0  0  0  0  0  0  0
   -6.5165   11.7544  -10.7314 C   0  0  0  0  0  0  0  0  0  0  0  0
   -7.7418   10.5517  -13.0215 C   0  0  0  0  0  0  0  0  0  0  0  0
   -7.0245   11.7463  -13.1093 C   0  0  0  0  0  0  0  0  0  0  0  0
   -7.8268    9.9859  -11.7428 C   0  0  0  0  0  0  0  0  0  0  0  0
   -7.2396   10.5800  -10.6042 C   0  0  0  0  0  0  0  0  0  0  0  0
   -7.6095    9.7151   -9.5092 C   0  0  0  0  0  0  0  0  0  0  0  0
   -8.2849    8.7010   -9.9773 N   0  0  0  0  0  0  0  0  0  0  0  0
   -8.4373    8.8403  -11.2922 N   0  0  0  0  0  0  0  0  0  0  0  0
   -7.3311    9.8727   -8.0225 C   0  0  0  0  0  0  0  0  0  0  0  0
   -5.6734   13.4955  -12.1182 N   0  0  0  0  0  0  0  0  0  0  0  0
   -5.9616   10.4819   -7.7358 C   0  0  0  0  0  0  0  0  0  0  0  0
   -4.8034    9.7678   -8.0459 C   0  0  0  0  0  0  0  0  0  0  0  0
   -3.5615   10.3255   -7.7934 C   0  0  0  0  0  0  0  0  0  0  0  0
   -3.4526   11.6006   -7.2315 C   0  0  0  0  0  0  0  0  0  0  0  0
   -4.6161   12.3136   -6.9153 C   0  0  0  0  0  0  0  0  0  0  0  0
   -5.8662   11.7565   -7.1617 C   0  0  0  0  0  0  0  0  0  0  0  0
   -2.1079   12.1894   -6.9634 C   0  0  0  0  0  0  0  0  0  0  0  0
   -1.7834   13.4363   -6.4469 C   0  0  0  0  0  0  0  0  0  0  0  0
   -0.4443   13.4911   -6.3955 N   0  0  3  0  0  0  0  0  0  0  0  0
    0.1636   12.4174   -6.8067 N   0  0  0  0  0  0  0  0  0  0  0  0
   -0.8107   11.6018   -7.1804 C   0  0  0  0  0  0  0  0  0  0  0  0
    0.3735   14.6113   -5.9298 C   0  0  0  0  0  0  0  0  0  0  0  0
   -5.8857   14.5071  -13.1620 C   0  0  0  0  0  0  0  0  0  0  0  0
   -4.6042   14.8313  -13.9092 C   0  0  0  0  0  0  0  0  0  0  0  0
   -3.6374   15.2080  -12.9343 O   0  0  0  0  0  0  0  0  0  0  0  0
   -3.2854   14.1223  -12.1198 C   0  0  0  0  0  0  0  0  0  0  0  0
   -4.5109   13.8217  -11.2574 C   0  0  0  0  0  0  0  0  0  0  0  0
   -6.0481   12.2112   -9.8721 H   0  0  0  0  0  0  0  0  0  0  0  0
   -8.2018   10.0931  -13.8843 H   0  0  0  0  0  0  0  0  0  0  0  0
   -6.9404   12.2372  -14.0676 H   0  0  0  0  0  0  0  0  0  0  0  0
   -8.0292    9.5839   -7.2507 H   0  0  0  0  0  0  0  0  0  0  0  0
   -4.8756    8.7823   -8.4819 H   0  0  0  0  0  0  0  0  0  0  0  0
   -2.6674    9.7693   -8.0332 H   0  0  0  0  0  0  0  0  0  0  0  0
   -4.5421   13.2987   -6.4789 H   0  0  0  0  0  0  0  0  0  0  0  0
   -6.7619   12.3053   -6.9110 H   0  0  0  0  0  0  0  0  0  0  0  0
   -2.1713   14.2311   -7.1010 H   0  0  0  0  0  0  0  0  0  0  0  0
   -2.2073   13.5518   -5.4385 H   0  0  0  0  0  0  0  0  0  0  0  0
    0.7644   12.6259   -7.5784 H   0  0  0  0  0  0  0  0  0  0  0  0
   -0.6522   10.6178   -7.5964 H   0  0  0  0  0  0  0  0  0  0  0  0
    1.4383   14.3476   -6.0117 H   0  0  0  0  0  0  0  0  0  0  0  0
    0.1668   15.4977   -6.5475 H   0  0  0  0  0  0  0  0  0  0  0  0
    0.1301   14.8312   -4.8799 H   0  0  0  0  0  0  0  0  0  0  0  0
   -6.6284   14.1271  -13.8790 H   0  0  0  0  0  0  0  0  0  0  0  0
   -6.2658   15.4268  -12.6932 H   0  0  0  0  0  0  0  0  0  0  0  0
   -4.2565   13.9474  -14.4640 H   0  0  0  0  0  0  0  0  0  0  0  0
   -4.7758   15.6607  -14.6111 H   0  0  0  0  0  0  0  0  0  0  0  0
   -3.0304   13.2488  -12.7378 H   0  0  0  0  0  0  0  0  0  0  0  0
   -2.4269   14.3849  -11.4842 H   0  0  0  0  0  0  0  0  0  0  0  0
   -4.7488   14.7031  -10.6438 H   0  0  0  0  0  0  0  0  0  0  0  0
   -4.2928   12.9662  -10.6013 H   0  0  0  0  0  0  0  0  0  0  0  0
  1  2  2  0  0  0  0
  1  4  1  0  0  0  0
  1 11  1  0  0  0  0
  2  6  1  0  0  0  0
  3  4  2  0  0  0  0
  3  5  1  0  0  0  0
  5  6  2  0  0  0  0
  5  9  1  0  0  0  0
  6  7  1  0  0  0  0
  7  8  1  0  0  0  0
  7 10  2  3  0  0  0
  8  9  2  0  0  0  0
 10 12  1  0  0  0  0
 11 24  1  0  0  0  0
 11 28  1  0  0  0  0
 12 13  2  0  0  0  0
 12 17  1  0  0  0  0
 13 14  1  0  0  0  0
 14 15  2  0  0  0  0
 15 16  1  0  0  0  0
 15 18  1  0  0  0  0
 16 17  2  0  0  0  0
 18 19  1  0  0  0  0
 18 22  2  0  0  0  0
 19 20  1  0  0  0  0
 20 21  1  0  0  0  0
 20 23  1  0  0  0  0
 21 22  1  0  0  0  0
 24 25  1  0  0  0  0
 25 26  1  0  0  0  0
 26 27  1  0  0  0  0
 27 28  1  0  0  0  0
  2 29  1  0  0  0  0
  3 30  1  0  0  0  0
  4 31  1  0  0  0  0
 10 32  1  0  0  0  0
 13 33  1  0  0  0  0
 14 34  1  0  0  0  0
 16 35  1  0  0  0  0
 17 36  1  0  0  0  0
 19 37  1  0  0  0  0
 19 38  1  0  0  0  0
 21 39  1  0  0  0  0
 22 40  1  0  0  0  0
 23 41  1  0  0  0  0
 23 42  1  0  0  0  0
 23 43  1  0  0  0  0
 24 44  1  0  0  0  0
 24 45  1  0  0  0  0
 25 46  1  0  0  0  0
 25 47  1  0  0  0  0
 27 48  1  0  0  0  0
 27 49  1  0  0  0  0
 28 50  1  0  0  0  0
 28 51  1  0  0  0  0
M  END
> <Name>
28

> <IC50[uM]>
30

$$$$
28
  -OEChem-05192314333D
 Structure written by MMmdl.
 51 55  0     1  0  0  0  0  0999 V2000
   -6.4084   12.3297  -11.9887 C   0  0  0  0  0  0  0  0  0  0  0  0
   -6.5165   11.7544  -10.7314 C   0  0  0  0  0  0  0  0  0  0  0  0
   -7.7418   10.5517  -13.0215 C   0  0  0  0  0  0  0  0  0  0  0  0
   -7.0245   11.7463  -13.1093 C   0  0  0  0  0  0  0  0  0  0  0  0
   -7.8268    9.9859  -11.7428 C   0  0  0  0  0  0  0  0  0  0  0  0
   -7.2396   10.5800  -10.6042 C   0  0  0  0  0  0  0  0  0  0  0  0
   -7.6095    9.7151   -9.5092 C   0  0  3  0  0  0  0  0  0  0  0  0
   -8.2849    8.7010   -9.9773 N   0  0  0  0  0  0  0  0  0  0  0  0
   -8.4373    8.8403  -11.2922 N   0  0  0  0  0  0  0  0  0  0  0  0
   -7.3311    9.8727   -8.0225 C   0  0  0  0  0  0  0  0  0  0  0  0
   -5.6734   13.4955  -12.1182 N   0  0  0  0  0  0  0  0  0  0  0  0
   -5.9616   10.4819   -7.7358 C   0  0  0  0  0  0  0  0  0  0  0  0
   -4.8034    9.7678   -8.0459 C   0  0  0  0  0  0  0  0  0  0  0  0
   -3.5615   10.3255   -7.7934 C   0  0  0  0  0  0  0  0  0  0  0  0
   -3.4526   11.6006   -7.2315 C   0  0  0  0  0  0  0  0  0  0  0  0
   -4.6161   12.3136   -6.9153 C   0  0  0  0  0  0  0  0  0  0  0  0
   -5.8662   11.7565   -7.1617 C   0  0  0  0  0  0  0  0  0  0  0  0
   -2.1079   12.1894   -6.9634 C   0  0  0  0  0  0  0  0  0  0  0  0
   -1.7834   13.4363   -6.4469 C   0  0  0  0  0  0  0  0  0  0  0  0
   -0.4443   13.4911   -6.3955 N   0  0  3  0  0  0  0  0  0  0  0  0
    0.1636   12.4174   -6.8067 N   0  0  0  0  0  0  0  0  0  0  0  0
   -0.8107   11.6018   -7.1804 C   0  0  0  0  0  0  0  0  0  0  0  0
    0.3735   14.6113   -5.9298 C   0  0  0  0  0  0  0  0  0  0  0  0
   -5.8857   14.5071  -13.1620 C   0  0  0  0  0  0  0  0  0  0  0  0
   -4.6042   14.8313  -13.9092 C   0  0  0  0  0  0  0  0  0  0  0  0
   -3.6374   15.2080  -12.9343 O   0  0  0  0  0  0  0  0  0  0  0  0
   -3.2854   14.1223  -12.1198 C   0  0  0  0  0  0  0  0  0  0  0  0
   -4.5109   13.8217  -11.2574 C   0  0  0  0  0  0  0  0  0  0  0  0
   -6.0481   12.2112   -9.8721 H   0  0  0  0  0  0  0  0  0  0  0  0
   -8.2018   10.0931  -13.8843 H   0  0  0  0  0  0  0  0  0  0  0  0
   -6.9404   12.2372  -14.0676 H   0  0  0  0  0  0  0  0  0  0  0  0
   -6.6716    9.1531   -9.6299 H   0  0  0  0  0  0  0  0  0  0  0  0
   -8.0292    9.5839   -7.2507 H   0  0  0  0  0  0  0  0  0  0  0  0
   -4.8756    8.7823   -8.4819 H   0  0  0  0  0  0  0  0  0  0  0  0
   -2.6674    9.7693   -8.0332 H   0  0  0  0  0  0  0  0  0  0  0  0
   -4.5421   13.2987   -6.4789 H   0  0  0  0  0  0  0  0  0  0  0  0
   -6.7619   12.3053   -6.9110 H   0  0  0  0  0  0  0  0  0  0  0  0
   -2.1713   14.2311   -7.1010 H   0  0  0  0  0  0  0  0  0  0  0  0
   -2.2073   13.5518   -5.4385 H   0  0  0  0  0  0  0  0  0  0  0  0
   -0.6522   10.6178   -7.5964 H   0  0  0  0  0  0  0  0  0  0  0  0
    1.4382   14.3462   -6.0082 H   0  0  0  0  0  0  0  0  0  0  0  0
    0.1696   15.4967   -6.5499 H   0  0  0  0  0  0  0  0  0  0  0  0
    0.1274   14.8336   -4.8810 H   0  0  0  0  0  0  0  0  0  0  0  0
   -6.6284   14.1271  -13.8790 H   0  0  0  0  0  0  0  0  0  0  0  0
   -6.2658   15.4268  -12.6932 H   0  0  0  0  0  0  0  0  0  0  0  0
   -4.2565   13.9474  -14.4640 H   0  0  0  0  0  0  0  0  0  0  0  0
   -4.7758   15.6607  -14.6111 H   0  0  0  0  0  0  0  0  0  0  0  0
   -3.0304   13.2488  -12.7378 H   0  0  0  0  0  0  0  0  0  0  0  0
   -2.4269   14.3849  -11.4842 H   0  0  0  0  0  0  0  0  0  0  0  0
   -4.7488   14.7031  -10.6438 H   0  0  0  0  0  0  0  0  0  0  0  0
   -4.2928   12.9662  -10.6013 H   0  0  0  0  0  0  0  0  0  0  0  0
  1  2  2  0  0  0  0
  1  4  1  0  0  0  0
  1 11  1  0  0  0  0
  2  6  1  0  0  0  0
  3  4  2  0  0  0  0
  3  5  1  0  0  0  0
  5  6  2  0  0  0  0
  5  9  1  0  0  0  0
  6  7  1  0  0  0  0
  7  8  1  0  0  0  0
  7 10  1  0  0  0  0
  8  9  2  0  0  0  0
 10 12  2  0  0  0  0
 11 24  1  0  0  0  0
 11 28  1  0  0  0  0
 12 13  1  0  0  0  0
 12 17  1  0  0  0  0
 13 14  2  0  0  0  0
 14 15  1  0  0  0  0
 15 16  1  0  0  0  0
 15 18  2  0  0  0  0
 16 17  2  0  0  0  0
 18 19  1  0  0  0  0
 18 22  1  0  0  0  0
 19 20  1  0  0  0  0
 20 21  1  0  0  0  0
 20 23  1  0  0  0  0
 21 22  2  0  0  0  0
 24 25  1  0  0  0  0
 25 26  1  0  0  0  0
 26 27  1  0  0  0  0
 27 28  1  0  0  0  0
  2 29  1  0  0  0  0
  3 30  1  0  0  0  0
  4 31  1  0  0  0  0
  7 32  1  0  0  0  0
 10 33  1  0  0  0  0
 13 34  1  0  0  0  0
 14 35  1  0  0  0  0
 16 36  1  0  0  0  0
 17 37  1  0  0  0  0
 19 38  1  0  0  0  0
 19 39  1  0  0  0  0
 22 40  1  0  0  0  0
 23 41  1  0  0  0  0
 23 42  1  0  0  0  0
 23 43  1  0  0  0  0
 24 44  1  0  0  0  0
 24 45  1  0  0  0  0
 25 46  1  0  0  0  0
 25 47  1  0  0  0  0
 27 48  1  0  0  0  0
 27 49  1  0  0  0  0
 28 50  1  0  0  0  0
 28 51  1  0  0  0  0
M  END
> <Name>
28

> <IC50[uM]>
30

$$$$
28
  -OEChem-05192314333D
 Structure written by MMmdl.
 51 55  0     1  0  0  0  0  0999 V2000
   -6.4084   12.3297  -11.9887 C   0  0  0  0  0  0  0  0  0  0  0  0
   -6.5165   11.7544  -10.7314 C   0  0  0  0  0  0  0  0  0  0  0  0
   -7.7418   10.5517  -13.0215 C   0  0  0  0  0  0  0  0  0  0  0  0
   -7.0245   11.7463  -13.1093 C   0  0  0  0  0  0  0  0  0  0  0  0
   -7.8268    9.9859  -11.7428 C   0  0  0  0  0  0  0  0  0  0  0  0
   -7.2396   10.5800  -10.6042 C   0  0  3  0  0  0  0  0  0  0  0  0
   -7.6095    9.7151   -9.5092 C   0  0  0  0  0  0  0  0  0  0  0  0
   -8.2849    8.7010   -9.9773 N   0  0  0  0  0  0  0  0  0  0  0  0
   -8.4373    8.8403  -11.2922 N   0  0  0  0  0  0  0  0  0  0  0  0
   -7.3311    9.8727   -8.0225 C   0  0  0  0  0  0  0  0  0  0  0  0
   -5.6734   13.4955  -12.1182 N   0  0  0  0  0  0  0  0  0  0  0  0
   -5.9616   10.4819   -7.7358 C   0  0  0  0  0  0  0  0  0  0  0  0
   -4.8034    9.7678   -8.0459 C   0  0  0  0  0  0  0  0  0  0  0  0
   -3.5615   10.3255   -7.7934 C   0  0  0  0  0  0  0  0  0  0  0  0
   -3.4526   11.6006   -7.2315 C   0  0  0  0  0  0  0  0  0  0  0  0
   -4.6161   12.3136   -6.9153 C   0  0  0  0  0  0  0  0  0  0  0  0
   -5.8662   11.7565   -7.1617 C   0  0  0  0  0  0  0  0  0  0  0  0
   -2.1079   12.1894   -6.9634 C   0  0  0  0  0  0  0  0  0  0  0  0
   -1.7834   13.4363   -6.4469 C   0  0  0  0  0  0  0  0  0  0  0  0
   -0.4443   13.4911   -6.3955 N   0  0  0  0  0  0  0  0  0  0  0  0
    0.1636   12.4174   -6.8067 N   0  0  0  0  0  0  0  0  0  0  0  0
   -0.8107   11.6018   -7.1804 C   0  0  0  0  0  0  0  0  0  0  0  0
    0.3735   14.6113   -5.9298 C   0  0  0  0  0  0  0  0  0  0  0  0
   -5.8857   14.5071  -13.1620 C   0  0  0  0  0  0  0  0  0  0  0  0
   -4.6042   14.8313  -13.9092 C   0  0  0  0  0  0  0  0  0  0  0  0
   -3.6374   15.2080  -12.9343 O   0  0  0  0  0  0  0  0  0  0  0  0
   -3.2854   14.1223  -12.1198 C   0  0  0  0  0  0  0  0  0  0  0  0
   -4.5109   13.8217  -11.2574 C   0  0  0  0  0  0  0  0  0  0  0  0
   -6.0481   12.2112   -9.8721 H   0  0  0  0  0  0  0  0  0  0  0  0
   -8.2018   10.0931  -13.8843 H   0  0  0  0  0  0  0  0  0  0  0  0
   -6.9404   12.2372  -14.0676 H   0  0  0  0  0  0  0  0  0  0  0  0
   -6.3233    9.9928  -10.7645 H   0  0  0  0  0  0  0  0  0  0  0  0
   -8.1032   10.5248   -7.5881 H   0  0  0  0  0  0  0  0  0  0  0  0
   -7.3800    8.8809   -7.5492 H   0  0  0  0  0  0  0  0  0  0  0  0
   -4.8756    8.7823   -8.4819 H   0  0  0  0  0  0  0  0  0  0  0  0
   -2.6674    9.7693   -8.0332 H   0  0  0  0  0  0  0  0  0  0  0  0
   -4.5421   13.2987   -6.4789 H   0  0  0  0  0  0  0  0  0  0  0  0
   -6.7619   12.3053   -6.9110 H   0  0  0  0  0  0  0  0  0  0  0  0
   -2.4737   14.2103   -6.1456 H   0  0  0  0  0  0  0  0  0  0  0  0
   -0.6522   10.6178   -7.5964 H   0  0  0  0  0  0  0  0  0  0  0  0
    1.4382   14.3462   -6.0082 H   0  0  0  0  0  0  0  0  0  0  0  0
    0.1696   15.4967   -6.5499 H   0  0  0  0  0  0  0  0  0  0  0  0
    0.1274   14.8336   -4.8810 H   0  0  0  0  0  0  0  0  0  0  0  0
   -6.6284   14.1271  -13.8790 H   0  0  0  0  0  0  0  0  0  0  0  0
   -6.2658   15.4268  -12.6932 H   0  0  0  0  0  0  0  0  0  0  0  0
   -4.2565   13.9474  -14.4640 H   0  0  0  0  0  0  0  0  0  0  0  0
   -4.7758   15.6607  -14.6111 H   0  0  0  0  0  0  0  0  0  0  0  0
   -3.0304   13.2488  -12.7378 H   0  0  0  0  0  0  0  0  0  0  0  0
   -2.4269   14.3849  -11.4842 H   0  0  0  0  0  0  0  0  0  0  0  0
   -4.7488   14.7031  -10.6438 H   0  0  0  0  0  0  0  0  0  0  0  0
   -4.2928   12.9662  -10.6013 H   0  0  0  0  0  0  0  0  0  0  0  0
  1  2  2  0  0  0  0
  1  4  1  0  0  0  0
  1 11  1  0  0  0  0
  2  6  1  0  0  0  0
  3  4  2  0  0  0  0
  3  5  1  0  0  0  0
  5  6  1  0  0  0  0
  5  9  2  0  0  0  0
  6  7  1  0  0  0  0
  7  8  2  0  0  0  0
  7 10  1  0  0  0  0
  8  9  1  0  0  0  0
 10 12  1  0  0  0  0
 11 24  1  0  0  0  0
 11 28  1  0  0  0  0
 12 13  2  0  0  0  0
 12 17  1  0  0  0  0
 13 14  1  0  0  0  0
 14 15  2  0  0  0  0
 15 16  1  0  0  0  0
 15 18  1  0  0  0  0
 16 17  2  0  0  0  0
 18 19  2  0  0  0  0
 18 22  1  0  0  0  0
 19 20  1  0  0  0  0
 20 21  1  0  0  0  0
 20 23  1  0  0  0  0
 21 22  2  0  0  0  0
 24 25  1  0  0  0  0
 25 26  1  0  0  0  0
 26 27  1  0  0  0  0
 27 28  1  0  0  0  0
  2 29  1  0  0  0  0
  3 30  1  0  0  0  0
  4 31  1  0  0  0  0
  6 32  1  0  0  0  0
 10 33  1  0  0  0  0
 10 34  1  0  0  0  0
 13 35  1  0  0  0  0
 14 36  1  0  0  0  0
 16 37  1  0  0  0  0
 17 38  1  0  0  0  0
 19 39  1  0  0  0  0
 22 40  1  0  0  0  0
 23 41  1  0  0  0  0
 23 42  1  0  0  0  0
 23 43  1  0  0  0  0
 24 44  1  0  0  0  0
 24 45  1  0  0  0  0
 25 46  1  0  0  0  0
 25 47  1  0  0  0  0
 27 48  1  0  0  0  0
 27 49  1  0  0  0  0
 28 50  1  0  0  0  0
 28 51  1  0  0  0  0
M  END
> <Name>
28

> <IC50[uM]>
30

$$$$
28
  -OEChem-05192314333D
 Structure written by MMmdl.
 51 55  0     1  0  0  0  0  0999 V2000
   -6.4084   12.3297  -11.9887 C   0  0  3  0  0  0  0  0  0  0  0  0
   -6.5165   11.7544  -10.7314 C   0  0  0  0  0  0  0  0  0  0  0  0
   -7.7418   10.5517  -13.0215 C   0  0  0  0  0  0  0  0  0  0  0  0
   -7.0245   11.7463  -13.1093 C   0  0  0  0  0  0  0  0  0  0  0  0
   -7.8268    9.9859  -11.7428 C   0  0  0  0  0  0  0  0  0  0  0  0
   -7.2396   10.5800  -10.6042 C   0  0  0  0  0  0  0  0  0  0  0  0
   -7.6095    9.7151   -9.5092 C   0  0  0  0  0  0  0  0  0  0  0  0
   -8.2849    8.7010   -9.9773 N   0  0  0  0  0  0  0  0  0  0  0  0
   -8.4373    8.8403  -11.2922 N   0  0  0  0  0  0  0  0  0  0  0  0
   -7.3311    9.8727   -8.0225 C   0  0  0  0  0  0  0  0  0  0  0  0
   -5.6734   13.4955  -12.1182 N   0  0  0  0  0  0  0  0  0  0  0  0
   -5.9616   10.4819   -7.7358 C   0  0  0  0  0  0  0  0  0  0  0  0
   -4.8034    9.7678   -8.0459 C   0  0  0  0  0  0  0  0  0  0  0  0
   -3.5615   10.3255   -7.7934 C   0  0  0  0  0  0  0  0  0  0  0  0
   -3.4526   11.6006   -7.2315 C   0  0  0  0  0  0  0  0  0  0  0  0
   -4.6161   12.3136   -6.9153 C   0  0  0  0  0  0  0  0  0  0  0  0
   -5.8662   11.7565   -7.1617 C   0  0  0  0  0  0  0  0  0  0  0  0
   -2.1079   12.1894   -6.9634 C   0  0  0  0  0  0  0  0  0  0  0  0
   -1.7834   13.4363   -6.4469 C   0  0  0  0  0  0  0  0  0  0  0  0
   -0.4443   13.4911   -6.3955 N   0  0  0  0  0  0  0  0  0  0  0  0
    0.1636   12.4174   -6.8067 N   0  0  0  0  0  0  0  0  0  0  0  0
   -0.8107   11.6018   -7.1804 C   0  0  0  0  0  0  0  0  0  0  0  0
    0.3735   14.6113   -5.9298 C   0  0  0  0  0  0  0  0  0  0  0  0
   -5.8857   14.5071  -13.1620 C   0  0  0  0  0  0  0  0  0  0  0  0
   -4.6042   14.8313  -13.9092 C   0  0  0  0  0  0  0  0  0  0  0  0
   -3.6374   15.2080  -12.9343 O   0  0  0  0  0  0  0  0  0  0  0  0
   -3.2854   14.1223  -12.1198 C   0  0  0  0  0  0  0  0  0  0  0  0
   -4.5109   13.8217  -11.2574 C   0  0  0  0  0  0  0  0  0  0  0  0
   -7.3155   12.9217  -11.7969 H   0  0  0  0  0  0  0  0  0  0  0  0
   -6.0481   12.2112   -9.8721 H   0  0  0  0  0  0  0  0  0  0  0  0
   -8.2018   10.0931  -13.8843 H   0  0  0  0  0  0  0  0  0  0  0  0
   -6.9404   12.2372  -14.0676 H   0  0  0  0  0  0  0  0  0  0  0  0
   -8.1032   10.5248   -7.5881 H   0  0  0  0  0  0  0  0  0  0  0  0
   -7.3800    8.8809   -7.5492 H   0  0  0  0  0  0  0  0  0  0  0  0
   -4.8756    8.7823   -8.4819 H   0  0  0  0  0  0  0  0  0  0  0  0
   -2.6674    9.7693   -8.0332 H   0  0  0  0  0  0  0  0  0  0  0  0
   -4.5421   13.2987   -6.4789 H   0  0  0  0  0  0  0  0  0  0  0  0
   -6.7619   12.3053   -6.9110 H   0  0  0  0  0  0  0  0  0  0  0  0
   -2.4737   14.2103   -6.1456 H   0  0  0  0  0  0  0  0  0  0  0  0
   -0.6522   10.6178   -7.5964 H   0  0  0  0  0  0  0  0  0  0  0  0
    1.4382   14.3462   -6.0082 H   0  0  0  0  0  0  0  0  0  0  0  0
    0.1696   15.4967   -6.5499 H   0  0  0  0  0  0  0  0  0  0  0  0
    0.1274   14.8336   -4.8810 H   0  0  0  0  0  0  0  0  0  0  0  0
   -6.6284   14.1271  -13.8790 H   0  0  0  0  0  0  0  0  0  0  0  0
   -6.2658   15.4268  -12.6932 H   0  0  0  0  0  0  0  0  0  0  0  0
   -4.2565   13.9474  -14.4640 H   0  0  0  0  0  0  0  0  0  0  0  0
   -4.7758   15.6607  -14.6111 H   0  0  0  0  0  0  0  0  0  0  0  0
   -3.0304   13.2488  -12.7378 H   0  0  0  0  0  0  0  0  0  0  0  0
   -2.4269   14.3849  -11.4842 H   0  0  0  0  0  0  0  0  0  0  0  0
   -4.7488   14.7031  -10.6438 H   0  0  0  0  0  0  0  0  0  0  0  0
   -4.2928   12.9662  -10.6013 H   0  0  0  0  0  0  0  0  0  0  0  0
  1  2  1  0  0  0  0
  1  4  1  0  0  0  0
  1 11  1  0  0  0  0
  2  6  2  0  0  0  0
  3  4  2  0  0  0  0
  3  5  1  0  0  0  0
  5  6  1  0  0  0  0
  5  9  2  0  0  0  0
  6  7  1  0  0  0  0
  7  8  2  0  0  0  0
  7 10  1  0  0  0  0
  8  9  1  0  0  0  0
 10 12  1  0  0  0  0
 11 24  1  0  0  0  0
 11 28  1  0  0  0  0
 12 13  2  0  0  0  0
 12 17  1  0  0  0  0
 13 14  1  0  0  0  0
 14 15  2  0  0  0  0
 15 16  1  0  0  0  0
 15 18  1  0  0  0  0
 16 17  2  0  0  0  0
 18 19  2  0  0  0  0
 18 22  1  0  0  0  0
 19 20  1  0  0  0  0
 20 21  1  0  0  0  0
 20 23  1  0  0  0  0
 21 22  2  0  0  0  0
 24 25  1  0  0  0  0
 25 26  1  0  0  0  0
 26 27  1  0  0  0  0
 27 28  1  0  0  0  0
  1 29  1  0  0  0  0
  2 30  1  0  0  0  0
  3 31  1  0  0  0  0
  4 32  1  0  0  0  0
 10 33  1  0  0  0  0
 10 34  1  0  0  0  0
 13 35  1  0  0  0  0
 14 36  1  0  0  0  0
 16 37  1  0  0  0  0
 17 38  1  0  0  0  0
 19 39  1  0  0  0  0
 22 40  1  0  0  0  0
 23 41  1  0  0  0  0
 23 42  1  0  0  0  0
 23 43  1  0  0  0  0
 24 44  1  0  0  0  0
 24 45  1  0  0  0  0
 25 46  1  0  0  0  0
 25 47  1  0  0  0  0
 27 48  1  0  0  0  0
 27 49  1  0  0  0  0
 28 50  1  0  0  0  0
 28 51  1  0  0  0  0
M  END
> <Name>
28

> <IC50[uM]>
30

$$$$
28
  -OEChem-05192314333D
 Structure written by MMmdl.
 51 55  0     0  0  0  0  0  0999 V2000
   -6.4084   12.3297  -11.9887 C   0  0  0  0  0  0  0  0  0  0  0  0
   -6.5165   11.7544  -10.7314 C   0  0  0  0  0  0  0  0  0  0  0  0
   -7.7418   10.5517  -13.0215 C   0  0  0  0  0  0  0  0  0  0  0  0
   -7.0245   11.7463  -13.1093 C   0  0  0  0  0  0  0  0  0  0  0  0
   -7.8268    9.9859  -11.7428 C   0  0  0  0  0  0  0  0  0  0  0  0
   -7.2396   10.5800  -10.6042 C   0  0  0  0  0  0  0  0  0  0  0  0
   -7.6095    9.7151   -9.5092 C   0  0  0  0  0  0  0  0  0  0  0  0
   -8.2849    8.7010   -9.9773 N   0  0  0  0  0  0  0  0  0  0  0  0
   -8.4373    8.8403  -11.2922 N   0  0  0  0  0  0  0  0  0  0  0  0
   -7.3311    9.8727   -8.0225 C   0  0  0  0  0  0  0  0  0  0  0  0
   -5.6734   13.4955  -12.1182 N   0  0  0  0  0  0  0  0  0  0  0  0
   -5.9616   10.4819   -7.7358 C   0  0  0  0  0  0  0  0  0  0  0  0
   -4.8034    9.7678   -8.0459 C   0  0  0  0  0  0  0  0  0  0  0  0
   -3.5615   10.3255   -7.7934 C   0  0  0  0  0  0  0  0  0  0  0  0
   -3.4526   11.6006   -7.2315 C   0  0  0  0  0  0  0  0  0  0  0  0
   -4.6161   12.3136   -6.9153 C   0  0  0  0  0  0  0  0  0  0  0  0
   -5.8662   11.7565   -7.1617 C   0  0  0  0  0  0  0  0  0  0  0  0
   -2.1079   12.1894   -6.9634 C   0  0  0  0  0  0  0  0  0  0  0  0
   -1.7834   13.4363   -6.4469 C   0  0  0  0  0  0  0  0  0  0  0  0
   -0.4443   13.4911   -6.3955 N   0  0  0  0  0  0  0  0  0  0  0  0
    0.1636   12.4174   -6.8067 N   0  0  0  0  0  0  0  0  0  0  0  0
   -0.8107   11.6018   -7.1804 C   0  0  0  0  0  0  0  0  0  0  0  0
    0.3735   14.6113   -5.9298 C   0  0  0  0  0  0  0  0  0  0  0  0
   -5.8857   14.5071  -13.1620 C   0  0  0  0  0  0  0  0  0  0  0  0
   -4.6042   14.8313  -13.9092 C   0  0  0  0  0  0  0  0  0  0  0  0
   -3.6374   15.2080  -12.9343 O   0  0  0  0  0  0  0  0  0  0  0  0
   -3.2854   14.1223  -12.1198 C   0  0  0  0  0  0  0  0  0  0  0  0
   -4.5109   13.8217  -11.2574 C   0  0  0  0  0  0  0  0  0  0  0  0
   -6.0481   12.2112   -9.8721 H   0  0  0  0  0  0  0  0  0  0  0  0
   -8.7656   10.7458  -13.3738 H   0  0  0  0  0  0  0  0  0  0  0  0
   -7.2589    9.8183  -13.6840 H   0  0  0  0  0  0  0  0  0  0  0  0
   -6.9404   12.2372  -14.0676 H   0  0  0  0  0  0  0  0  0  0  0  0
   -8.1032   10.5248   -7.5881 H   0  0  0  0  0  0  0  0  0  0  0  0
   -7.3800    8.8809   -7.5492 H   0  0  0  0  0  0  0  0  0  0  0  0
   -4.8756    8.7823   -8.4819 H   0  0  0  0  0  0  0  0  0  0  0  0
   -2.6674    9.7693   -8.0332 H   0  0  0  0  0  0  0  0  0  0  0  0
   -4.5421   13.2987   -6.4789 H   0  0  0  0  0  0  0  0  0  0  0  0
   -6.7619   12.3053   -6.9110 H   0  0  0  0  0  0  0  0  0  0  0  0
   -2.4737   14.2103   -6.1456 H   0  0  0  0  0  0  0  0  0  0  0  0
   -0.6522   10.6178   -7.5964 H   0  0  0  0  0  0  0  0  0  0  0  0
    1.4382   14.3462   -6.0082 H   0  0  0  0  0  0  0  0  0  0  0  0
    0.1696   15.4967   -6.5499 H   0  0  0  0  0  0  0  0  0  0  0  0
    0.1274   14.8336   -4.8810 H   0  0  0  0  0  0  0  0  0  0  0  0
   -6.6284   14.1271  -13.8790 H   0  0  0  0  0  0  0  0  0  0  0  0
   -6.2658   15.4268  -12.6932 H   0  0  0  0  0  0  0  0  0  0  0  0
   -4.2565   13.9474  -14.4640 H   0  0  0  0  0  0  0  0  0  0  0  0
   -4.7758   15.6607  -14.6111 H   0  0  0  0  0  0  0  0  0  0  0  0
   -3.0304   13.2488  -12.7378 H   0  0  0  0  0  0  0  0  0  0  0  0
   -2.4269   14.3849  -11.4842 H   0  0  0  0  0  0  0  0  0  0  0  0
   -4.7488   14.7031  -10.6438 H   0  0  0  0  0  0  0  0  0  0  0  0
   -4.2928   12.9662  -10.6013 H   0  0  0  0  0  0  0  0  0  0  0  0
  1  2  1  0  0  0  0
  1  4  2  0  0  0  0
  1 11  1  0  0  0  0
  2  6  2  0  0  0  0
  3  4  1  0  0  0  0
  3  5  1  0  0  0  0
  5  6  1  0  0  0  0
  5  9  2  0  0  0  0
  6  7  1  0  0  0  0
  7  8  2  0  0  0  0
  7 10  1  0  0  0  0
  8  9  1  0  0  0  0
 10 12  1  0  0  0  0
 11 24  1  0  0  0  0
 11 28  1  0  0  0  0
 12 13  2  0  0  0  0
 12 17  1  0  0  0  0
 13 14  1  0  0  0  0
 14 15  2  0  0  0  0
 15 16  1  0  0  0  0
 15 18  1  0  0  0  0
 16 17  2  0  0  0  0
 18 19  2  0  0  0  0
 18 22  1  0  0  0  0
 19 20  1  0  0  0  0
 20 21  1  0  0  0  0
 20 23  1  0  0  0  0
 21 22  2  0  0  0  0
 24 25  1  0  0  0  0
 25 26  1  0  0  0  0
 26 27  1  0  0  0  0
 27 28  1  0  0  0  0
  2 29  1  0  0  0  0
  3 30  1  0  0  0  0
  3 31  1  0  0  0  0
  4 32  1  0  0  0  0
 10 33  1  0  0  0  0
 10 34  1  0  0  0  0
 13 35  1  0  0  0  0
 14 36  1  0  0  0  0
 16 37  1  0  0  0  0
 17 38  1  0  0  0  0
 19 39  1  0  0  0  0
 22 40  1  0  0  0  0
 23 41  1  0  0  0  0
 23 42  1  0  0  0  0
 23 43  1  0  0  0  0
 24 44  1  0  0  0  0
 24 45  1  0  0  0  0
 25 46  1  0  0  0  0
 25 47  1  0  0  0  0
 27 48  1  0  0  0  0
 27 49  1  0  0  0  0
 28 50  1  0  0  0  0
 28 51  1  0  0  0  0
M  END
> <Name>
28

> <IC50[uM]>
30

$$$$
28
  -OEChem-05192314333D
 Structure written by MMmdl.
 51 55  0     0  0  0  0  0  0999 V2000
   -6.4084   12.3297  -11.9887 C   0  0  0  0  0  0  0  0  0  0  0  0
   -6.5165   11.7544  -10.7314 C   0  0  0  0  0  0  0  0  0  0  0  0
   -7.7418   10.5517  -13.0215 C   0  0  0  0  0  0  0  0  0  0  0  0
   -7.0245   11.7463  -13.1093 C   0  0  0  0  0  0  0  0  0  0  0  0
   -7.8268    9.9859  -11.7428 C   0  0  0  0  0  0  0  0  0  0  0  0
   -7.2396   10.5800  -10.6042 C   0  0  0  0  0  0  0  0  0  0  0  0
   -7.6095    9.7151   -9.5092 C   0  0  0  0  0  0  0  0  0  0  0  0
   -8.2849    8.7010   -9.9773 N   0  0  0  0  0  0  0  0  0  0  0  0
   -8.4373    8.8403  -11.2922 N   0  0  0  0  0  0  0  0  0  0  0  0
   -7.3311    9.8727   -8.0225 C   0  0  0  0  0  0  0  0  0  0  0  0
   -5.6734   13.4955  -12.1182 N   0  0  0  0  0  0  0  0  0  0  0  0
   -5.9616   10.4819   -7.7358 C   0  0  0  0  0  0  0  0  0  0  0  0
   -4.8034    9.7678   -8.0459 C   0  0  0  0  0  0  0  0  0  0  0  0
   -3.5615   10.3255   -7.7934 C   0  0  0  0  0  0  0  0  0  0  0  0
   -3.4526   11.6006   -7.2315 C   0  0  0  0  0  0  0  0  0  0  0  0
   -4.6161   12.3136   -6.9153 C   0  0  0  0  0  0  0  0  0  0  0  0
   -5.8662   11.7565   -7.1617 C   0  0  0  0  0  0  0  0  0  0  0  0
   -2.1079   12.1894   -6.9634 C   0  0  0  0  0  0  0  0  0  0  0  0
   -1.7834   13.4363   -6.4469 C   0  0  0  0  0  0  0  0  0  0  0  0
   -0.4443   13.4911   -6.3955 N   0  0  0  0  0  0  0  0  0  0  0  0
    0.1636   12.4174   -6.8067 N   0  0  0  0  0  0  0  0  0  0  0  0
   -0.8107   11.6018   -7.1804 C   0  0  0  0  0  0  0  0  0  0  0  0
    0.3735   14.6113   -5.9298 C   0  0  0  0  0  0  0  0  0  0  0  0
   -5.8857   14.5071  -13.1620 C   0  0  0  0  0  0  0  0  0  0  0  0
   -4.6042   14.8313  -13.9092 C   0  0  0  0  0  0  0  0  0  0  0  0
   -3.6374   15.2080  -12.9343 O   0  0  0  0  0  0  0  0  0  0  0  0
   -3.2854   14.1223  -12.1198 C   0  0  0  0  0  0  0  0  0  0  0  0
   -4.5109   13.8217  -11.2574 C   0  0  0  0  0  0  0  0  0  0  0  0
   -6.0481   12.2112   -9.8721 H   0  0  0  0  0  0  0  0  0  0  0  0
   -8.2018   10.0931  -13.8843 H   0  0  0  0  0  0  0  0  0  0  0  0
   -6.9404   12.2372  -14.0676 H   0  0  0  0  0  0  0  0  0  0  0  0
   -8.0292    9.5839   -7.2507 H   0  0  0  0  0  0  0  0  0  0  0  0
   -5.9522   10.9330   -8.7390 H   0  0  0  0  0  0  0  0  0  0  0  0
   -4.8756    8.7823   -8.4819 H   0  0  0  0  0  0  0  0  0  0  0  0
   -2.6674    9.7693   -8.0332 H   0  0  0  0  0  0  0  0  0  0  0  0
   -3.4498   12.0463   -8.2372 H   0  0  0  0  0  0  0  0  0  0  0  0
   -4.5421   13.2987   -6.4789 H   0  0  0  0  0  0  0  0  0  0  0  0
   -6.7619   12.3053   -6.9110 H   0  0  0  0  0  0  0  0  0  0  0  0
   -2.4737   14.2103   -6.1456 H   0  0  0  0  0  0  0  0  0  0  0  0
   -0.6522   10.6178   -7.5964 H   0  0  0  0  0  0  0  0  0  0  0  0
    1.4382   14.3462   -6.0082 H   0  0  0  0  0  0  0  0  0  0  0  0
    0.1696   15.4967   -6.5499 H   0  0  0  0  0  0  0  0  0  0  0  0
    0.1274   14.8336   -4.8810 H   0  0  0  0  0  0  0  0  0  0  0  0
   -6.6284   14.1271  -13.8790 H   0  0  0  0  0  0  0  0  0  0  0  0
   -6.2658   15.4268  -12.6932 H   0  0  0  0  0  0  0  0  0  0  0  0
   -4.2565   13.9474  -14.4640 H   0  0  0  0  0  0  0  0  0  0  0  0
   -4.7758   15.6607  -14.6111 H   0  0  0  0  0  0  0  0  0  0  0  0
   -3.0304   13.2488  -12.7378 H   0  0  0  0  0  0  0  0  0  0  0  0
   -2.4269   14.3849  -11.4842 H   0  0  0  0  0  0  0  0  0  0  0  0
   -4.7488   14.7031  -10.6438 H   0  0  0  0  0  0  0  0  0  0  0  0
   -4.2928   12.9662  -10.6013 H   0  0  0  0  0  0  0  0  0  0  0  0
  1  2  2  0  0  0  0
  1  4  1  0  0  0  0
  1 11  1  0  0  0  0
  2  6  1  0  0  0  0
  3  4  2  0  0  0  0
  3  5  1  0  0  0  0
  5  6  2  0  0  0  0
  5  9  1  0  0  0  0
  6  7  1  0  0  0  0
  7  8  1  0  0  0  0
  7 10  2  3  0  0  0
  8  9  2  0  0  0  0
 10 12  1  0  0  0  0
 11 24  1  0  0  0  0
 11 28  1  0  0  0  0
 12 13  1  0  0  0  0
 12 17  1  0  0  0  0
 13 14  2  0  0  0  0
 14 15  1  0  0  0  0
 15 16  1  0  0  0  0
 15 18  1  0  0  0  0
 16 17  2  0  0  0  0
 18 19  2  0  0  0  0
 18 22  1  0  0  0  0
 19 20  1  0  0  0  0
 20 21  1  0  0  0  0
 20 23  1  0  0  0  0
 21 22  2  0  0  0  0
 24 25  1  0  0  0  0
 25 26  1  0  0  0  0
 26 27  1  0  0  0  0
 27 28  1  0  0  0  0
  2 29  1  0  0  0  0
  3 30  1  0  0  0  0
  4 31  1  0  0  0  0
 10 32  1  0  0  0  0
 12 33  1  0  0  0  0
 13 34  1  0  0  0  0
 14 35  1  0  0  0  0
 15 36  1  0  0  0  0
 16 37  1  0  0  0  0
 17 38  1  0  0  0  0
 19 39  1  0  0  0  0
 22 40  1  0  0  0  0
 23 41  1  0  0  0  0
 23 42  1  0  0  0  0
 23 43  1  0  0  0  0
 24 44  1  0  0  0  0
 24 45  1  0  0  0  0
 25 46  1  0  0  0  0
 25 47  1  0  0  0  0
 27 48  1  0  0  0  0
 27 49  1  0  0  0  0
 28 50  1  0  0  0  0
 28 51  1  0  0  0  0
M  END
> <Name>
28

> <IC50[uM]>
30

$$$$
28
  -OEChem-05192314333D
 Structure written by MMmdl.
 51 55  0     1  0  0  0  0  0999 V2000
   -6.4084   12.3297  -11.9887 C   0  0  0  0  0  0  0  0  0  0  0  0
   -6.5165   11.7544  -10.7314 C   0  0  0  0  0  0  0  0  0  0  0  0
   -7.7418   10.5517  -13.0215 C   0  0  0  0  0  0  0  0  0  0  0  0
   -7.0245   11.7463  -13.1093 C   0  0  0  0  0  0  0  0  0  0  0  0
   -7.8268    9.9859  -11.7428 C   0  0  0  0  0  0  0  0  0  0  0  0
   -7.2396   10.5800  -10.6042 C   0  0  0  0  0  0  0  0  0  0  0  0
   -7.6095    9.7151   -9.5092 C   0  0  3  0  0  0  0  0  0  0  0  0
   -8.2849    8.7010   -9.9773 N   0  0  0  0  0  0  0  0  0  0  0  0
   -8.4373    8.8403  -11.2922 N   0  0  0  0  0  0  0  0  0  0  0  0
   -7.3311    9.8727   -8.0225 C   0  0  0  0  0  0  0  0  0  0  0  0
   -5.6734   13.4955  -12.1182 N   0  0  0  0  0  0  0  0  0  0  0  0
   -5.9616   10.4819   -7.7358 C   0  0  0  0  0  0  0  0  0  0  0  0
   -4.8034    9.7678   -8.0459 C   0  0  0  0  0  0  0  0  0  0  0  0
   -3.5615   10.3255   -7.7934 C   0  0  0  0  0  0  0  0  0  0  0  0
   -3.4526   11.6006   -7.2315 C   0  0  0  0  0  0  0  0  0  0  0  0
   -4.6161   12.3136   -6.9153 C   0  0  0  0  0  0  0  0  0  0  0  0
   -5.8662   11.7565   -7.1617 C   0  0  0  0  0  0  0  0  0  0  0  0
   -2.1079   12.1894   -6.9634 C   0  0  0  0  0  0  0  0  0  0  0  0
   -1.7834   13.4363   -6.4469 C   0  0  0  0  0  0  0  0  0  0  0  0
   -0.4443   13.4911   -6.3955 N   0  0  0  0  0  0  0  0  0  0  0  0
    0.1636   12.4174   -6.8067 N   0  0  0  0  0  0  0  0  0  0  0  0
   -0.8107   11.6018   -7.1804 C   0  0  0  0  0  0  0  0  0  0  0  0
    0.3735   14.6113   -5.9298 C   0  0  0  0  0  0  0  0  0  0  0  0
   -5.8857   14.5071  -13.1620 C   0  0  0  0  0  0  0  0  0  0  0  0
   -4.6042   14.8313  -13.9092 C   0  0  0  0  0  0  0  0  0  0  0  0
   -3.6374   15.2080  -12.9343 O   0  0  0  0  0  0  0  0  0  0  0  0
   -3.2854   14.1223  -12.1198 C   0  0  0  0  0  0  0  0  0  0  0  0
   -4.5109   13.8217  -11.2574 C   0  0  0  0  0  0  0  0  0  0  0  0
   -6.0481   12.2112   -9.8721 H   0  0  0  0  0  0  0  0  0  0  0  0
   -8.2018   10.0931  -13.8843 H   0  0  0  0  0  0  0  0  0  0  0  0
   -6.9404   12.2372  -14.0676 H   0  0  0  0  0  0  0  0  0  0  0  0
   -6.6716    9.1531   -9.6299 H   0  0  0  0  0  0  0  0  0  0  0  0
   -8.0292    9.5839   -7.2507 H   0  0  0  0  0  0  0  0  0  0  0  0
   -4.8756    8.7823   -8.4819 H   0  0  0  0  0  0  0  0  0  0  0  0
   -2.6674    9.7693   -8.0332 H   0  0  0  0  0  0  0  0  0  0  0  0
   -3.4498   12.0463   -8.2372 H   0  0  0  0  0  0  0  0  0  0  0  0
   -4.5421   13.2987   -6.4789 H   0  0  0  0  0  0  0  0  0  0  0  0
   -6.7619   12.3053   -6.9110 H   0  0  0  0  0  0  0  0  0  0  0  0
   -2.4737   14.2103   -6.1456 H   0  0  0  0  0  0  0  0  0  0  0  0
   -0.6522   10.6178   -7.5964 H   0  0  0  0  0  0  0  0  0  0  0  0
    1.4382   14.3462   -6.0082 H   0  0  0  0  0  0  0  0  0  0  0  0
    0.1696   15.4967   -6.5499 H   0  0  0  0  0  0  0  0  0  0  0  0
    0.1274   14.8336   -4.8810 H   0  0  0  0  0  0  0  0  0  0  0  0
   -6.6284   14.1271  -13.8790 H   0  0  0  0  0  0  0  0  0  0  0  0
   -6.2658   15.4268  -12.6932 H   0  0  0  0  0  0  0  0  0  0  0  0
   -4.2565   13.9474  -14.4640 H   0  0  0  0  0  0  0  0  0  0  0  0
   -4.7758   15.6607  -14.6111 H   0  0  0  0  0  0  0  0  0  0  0  0
   -3.0304   13.2488  -12.7378 H   0  0  0  0  0  0  0  0  0  0  0  0
   -2.4269   14.3849  -11.4842 H   0  0  0  0  0  0  0  0  0  0  0  0
   -4.7488   14.7031  -10.6438 H   0  0  0  0  0  0  0  0  0  0  0  0
   -4.2928   12.9662  -10.6013 H   0  0  0  0  0  0  0  0  0  0  0  0
  1  2  2  0  0  0  0
  1  4  1  0  0  0  0
  1 11  1  0  0  0  0
  2  6  1  0  0  0  0
  3  4  2  0  0  0  0
  3  5  1  0  0  0  0
  5  6  2  0  0  0  0
  5  9  1  0  0  0  0
  6  7  1  0  0  0  0
  7  8  1  0  0  0  0
  7 10  1  0  0  0  0
  8  9  2  0  0  0  0
 10 12  2  0  0  0  0
 11 24  1  0  0  0  0
 11 28  1  0  0  0  0
 12 13  1  0  0  0  0
 12 17  1  0  0  0  0
 13 14  2  0  0  0  0
 14 15  1  0  0  0  0
 15 16  1  0  0  0  0
 15 18  1  0  0  0  0
 16 17  2  0  0  0  0
 18 19  2  0  0  0  0
 18 22  1  0  0  0  0
 19 20  1  0  0  0  0
 20 21  1  0  0  0  0
 20 23  1  0  0  0  0
 21 22  2  0  0  0  0
 24 25  1  0  0  0  0
 25 26  1  0  0  0  0
 26 27  1  0  0  0  0
 27 28  1  0  0  0  0
  2 29  1  0  0  0  0
  3 30  1  0  0  0  0
  4 31  1  0  0  0  0
  7 32  1  0  0  0  0
 10 33  1  0  0  0  0
 13 34  1  0  0  0  0
 14 35  1  0  0  0  0
 15 36  1  0  0  0  0
 16 37  1  0  0  0  0
 17 38  1  0  0  0  0
 19 39  1  0  0  0  0
 22 40  1  0  0  0  0
 23 41  1  0  0  0  0
 23 42  1  0  0  0  0
 23 43  1  0  0  0  0
 24 44  1  0  0  0  0
 24 45  1  0  0  0  0
 25 46  1  0  0  0  0
 25 47  1  0  0  0  0
 27 48  1  0  0  0  0
 27 49  1  0  0  0  0
 28 50  1  0  0  0  0
 28 51  1  0  0  0  0
M  END
> <Name>
28

> <IC50[uM]>
30

$$$$
28
  -OEChem-05192314333D
 Structure written by MMmdl.
 51 55  0     1  0  0  0  0  0999 V2000
   -6.4084   12.3297  -11.9887 C   0  0  0  0  0  0  0  0  0  0  0  0
   -6.5165   11.7544  -10.7314 C   0  0  0  0  0  0  0  0  0  0  0  0
   -7.7418   10.5517  -13.0215 C   0  0  0  0  0  0  0  0  0  0  0  0
   -7.0245   11.7463  -13.1093 C   0  0  0  0  0  0  0  0  0  0  0  0
   -7.8268    9.9859  -11.7428 C   0  0  3  0  0  0  0  0  0  0  0  0
   -7.2396   10.5800  -10.6042 C   0  0  3  0  0  0  0  0  0  0  0  0
   -7.6095    9.7151   -9.5092 C   0  0  0  0  0  0  0  0  0  0  0  0
   -8.2849    8.7010   -9.9773 N   0  0  0  0  0  0  0  0  0  0  0  0
   -8.4373    8.8403  -11.2922 N   0  0  0  0  0  0  0  0  0  0  0  0
   -7.3311    9.8727   -8.0225 C   0  0  0  0  0  0  0  0  0  0  0  0
   -5.6734   13.4955  -12.1182 N   0  0  0  0  0  0  0  0  0  0  0  0
   -5.9616   10.4819   -7.7358 C   0  0  0  0  0  0  0  0  0  0  0  0
   -4.8034    9.7678   -8.0459 C   0  0  0  0  0  0  0  0  0  0  0  0
   -3.5615   10.3255   -7.7934 C   0  0  0  0  0  0  0  0  0  0  0  0
   -3.4526   11.6006   -7.2315 C   0  0  0  0  0  0  0  0  0  0  0  0
   -4.6161   12.3136   -6.9153 C   0  0  0  0  0  0  0  0  0  0  0  0
   -5.8662   11.7565   -7.1617 C   0  0  0  0  0  0  0  0  0  0  0  0
   -2.1079   12.1894   -6.9634 C   0  0  0  0  0  0  0  0  0  0  0  0
   -1.7834   13.4363   -6.4469 C   0  0  0  0  0  0  0  0  0  0  0  0
   -0.4443   13.4911   -6.3955 N   0  0  0  0  0  0  0  0  0  0  0  0
    0.1636   12.4174   -6.8067 N   0  0  0  0  0  0  0  0  0  0  0  0
   -0.8107   11.6018   -7.1804 C   0  0  0  0  0  0  0  0  0  0  0  0
    0.3735   14.6113   -5.9298 C   0  0  0  0  0  0  0  0  0  0  0  0
   -5.8857   14.5071  -13.1620 C   0  0  0  0  0  0  0  0  0  0  0  0
   -4.6042   14.8313  -13.9092 C   0  0  0  0  0  0  0  0  0  0  0  0
   -3.6374   15.2080  -12.9343 O   0  0  0  0  0  0  0  0  0  0  0  0
   -3.2854   14.1223  -12.1198 C   0  0  0  0  0  0  0  0  0  0  0  0
   -4.5109   13.8217  -11.2574 C   0  0  0  0  0  0  0  0  0  0  0  0
   -6.0481   12.2112   -9.8721 H   0  0  0  0  0  0  0  0  0  0  0  0
   -8.2018   10.0931  -13.8843 H   0  0  0  0  0  0  0  0  0  0  0  0
   -6.9404   12.2372  -14.0676 H   0  0  0  0  0  0  0  0  0  0  0  0
   -6.9008    9.4219  -11.9286 H   0  0  0  0  0  0  0  0  0  0  0  0
   -6.3233    9.9928  -10.7645 H   0  0  0  0  0  0  0  0  0  0  0  0
   -8.0292    9.5839   -7.2507 H   0  0  0  0  0  0  0  0  0  0  0  0
   -4.8756    8.7823   -8.4819 H   0  0  0  0  0  0  0  0  0  0  0  0
   -2.6674    9.7693   -8.0332 H   0  0  0  0  0  0  0  0  0  0  0  0
   -4.5421   13.2987   -6.4789 H   0  0  0  0  0  0  0  0  0  0  0  0
   -6.7619   12.3053   -6.9110 H   0  0  0  0  0  0  0  0  0  0  0  0
   -2.4737   14.2103   -6.1456 H   0  0  0  0  0  0  0  0  0  0  0  0
   -0.6522   10.6178   -7.5964 H   0  0  0  0  0  0  0  0  0  0  0  0
    1.4382   14.3462   -6.0082 H   0  0  0  0  0  0  0  0  0  0  0  0
    0.1696   15.4967   -6.5499 H   0  0  0  0  0  0  0  0  0  0  0  0
    0.1274   14.8336   -4.8810 H   0  0  0  0  0  0  0  0  0  0  0  0
   -6.6284   14.1271  -13.8790 H   0  0  0  0  0  0  0  0  0  0  0  0
   -6.2658   15.4268  -12.6932 H   0  0  0  0  0  0  0  0  0  0  0  0
   -4.2565   13.9474  -14.4640 H   0  0  0  0  0  0  0  0  0  0  0  0
   -4.7758   15.6607  -14.6111 H   0  0  0  0  0  0  0  0  0  0  0  0
   -3.0304   13.2488  -12.7378 H   0  0  0  0  0  0  0  0  0  0  0  0
   -2.4269   14.3849  -11.4842 H   0  0  0  0  0  0  0  0  0  0  0  0
   -4.7488   14.7031  -10.6438 H   0  0  0  0  0  0  0  0  0  0  0  0
   -4.2928   12.9662  -10.6013 H   0  0  0  0  0  0  0  0  0  0  0  0
  1  2  2  0  0  0  0
  1  4  1  0  0  0  0
  1 11  1  0  0  0  0
  2  6  1  0  0  0  0
  3  4  2  0  0  0  0
  3  5  1  0  0  0  0
  5  6  1  0  0  0  0
  5  9  1  0  0  0  0
  6  7  1  0  0  0  0
  7  8  1  0  0  0  0
  7 10  2  3  0  0  0
  8  9  2  0  0  0  0
 10 12  1  0  0  0  0
 11 24  1  0  0  0  0
 11 28  1  0  0  0  0
 12 13  2  0  0  0  0
 12 17  1  0  0  0  0
 13 14  1  0  0  0  0
 14 15  2  0  0  0  0
 15 16  1  0  0  0  0
 15 18  1  0  0  0  0
 16 17  2  0  0  0  0
 18 19  2  0  0  0  0
 18 22  1  0  0  0  0
 19 20  1  0  0  0  0
 20 21  1  0  0  0  0
 20 23  1  0  0  0  0
 21 22  2  0  0  0  0
 24 25  1  0  0  0  0
 25 26  1  0  0  0  0
 26 27  1  0  0  0  0
 27 28  1  0  0  0  0
  2 29  1  0  0  0  0
  3 30  1  0  0  0  0
  4 31  1  0  0  0  0
  5 32  1  0  0  0  0
  6 33  1  0  0  0  0
 10 34  1  0  0  0  0
 13 35  1  0  0  0  0
 14 36  1  0  0  0  0
 16 37  1  0  0  0  0
 17 38  1  0  0  0  0
 19 39  1  0  0  0  0
 22 40  1  0  0  0  0
 23 41  1  0  0  0  0
 23 42  1  0  0  0  0
 23 43  1  0  0  0  0
 24 44  1  0  0  0  0
 24 45  1  0  0  0  0
 25 46  1  0  0  0  0
 25 47  1  0  0  0  0
 27 48  1  0  0  0  0
 27 49  1  0  0  0  0
 28 50  1  0  0  0  0
 28 51  1  0  0  0  0
M  END
> <Name>
28

> <IC50[uM]>
30

$$$$
28
  -OEChem-05192314333D
 Structure written by MMmdl.
 51 55  0     1  0  0  0  0  0999 V2000
   -6.4084   12.3297  -11.9887 C   0  0  3  0  0  0  0  0  0  0  0  0
   -6.5165   11.7544  -10.7314 C   0  0  0  0  0  0  0  0  0  0  0  0
   -7.7418   10.5517  -13.0215 C   0  0  0  0  0  0  0  0  0  0  0  0
   -7.0245   11.7463  -13.1093 C   0  0  0  0  0  0  0  0  0  0  0  0
   -7.8268    9.9859  -11.7428 C   0  0  3  0  0  0  0  0  0  0  0  0
   -7.2396   10.5800  -10.6042 C   0  0  0  0  0  0  0  0  0  0  0  0
   -7.6095    9.7151   -9.5092 C   0  0  0  0  0  0  0  0  0  0  0  0
   -8.2849    8.7010   -9.9773 N   0  0  0  0  0  0  0  0  0  0  0  0
   -8.4373    8.8403  -11.2922 N   0  0  0  0  0  0  0  0  0  0  0  0
   -7.3311    9.8727   -8.0225 C   0  0  0  0  0  0  0  0  0  0  0  0
   -5.6734   13.4955  -12.1182 N   0  0  0  0  0  0  0  0  0  0  0  0
   -5.9616   10.4819   -7.7358 C   0  0  0  0  0  0  0  0  0  0  0  0
   -4.8034    9.7678   -8.0459 C   0  0  0  0  0  0  0  0  0  0  0  0
   -3.5615   10.3255   -7.7934 C   0  0  0  0  0  0  0  0  0  0  0  0
   -3.4526   11.6006   -7.2315 C   0  0  0  0  0  0  0  0  0  0  0  0
   -4.6161   12.3136   -6.9153 C   0  0  0  0  0  0  0  0  0  0  0  0
   -5.8662   11.7565   -7.1617 C   0  0  0  0  0  0  0  0  0  0  0  0
   -2.1079   12.1894   -6.9634 C   0  0  0  0  0  0  0  0  0  0  0  0
   -1.7834   13.4363   -6.4469 C   0  0  0  0  0  0  0  0  0  0  0  0
   -0.4443   13.4911   -6.3955 N   0  0  0  0  0  0  0  0  0  0  0  0
    0.1636   12.4174   -6.8067 N   0  0  0  0  0  0  0  0  0  0  0  0
   -0.8107   11.6018   -7.1804 C   0  0  0  0  0  0  0  0  0  0  0  0
    0.3735   14.6113   -5.9298 C   0  0  0  0  0  0  0  0  0  0  0  0
   -5.8857   14.5071  -13.1620 C   0  0  0  0  0  0  0  0  0  0  0  0
   -4.6042   14.8313  -13.9092 C   0  0  0  0  0  0  0  0  0  0  0  0
   -3.6374   15.2080  -12.9343 O   0  0  0  0  0  0  0  0  0  0  0  0
   -3.2854   14.1223  -12.1198 C   0  0  0  0  0  0  0  0  0  0  0  0
   -4.5109   13.8217  -11.2574 C   0  0  0  0  0  0  0  0  0  0  0  0
   -7.3155   12.9217  -11.7969 H   0  0  0  0  0  0  0  0  0  0  0  0
   -6.0481   12.2112   -9.8721 H   0  0  0  0  0  0  0  0  0  0  0  0
   -8.2018   10.0931  -13.8843 H   0  0  0  0  0  0  0  0  0  0  0  0
   -6.9404   12.2372  -14.0676 H   0  0  0  0  0  0  0  0  0  0  0  0
   -6.9008    9.4219  -11.9286 H   0  0  0  0  0  0  0  0  0  0  0  0
   -8.0292    9.5839   -7.2507 H   0  0  0  0  0  0  0  0  0  0  0  0
   -4.8756    8.7823   -8.4819 H   0  0  0  0  0  0  0  0  0  0  0  0
   -2.6674    9.7693   -8.0332 H   0  0  0  0  0  0  0  0  0  0  0  0
   -4.5421   13.2987   -6.4789 H   0  0  0  0  0  0  0  0  0  0  0  0
   -6.7619   12.3053   -6.9110 H   0  0  0  0  0  0  0  0  0  0  0  0
   -2.4737   14.2103   -6.1456 H   0  0  0  0  0  0  0  0  0  0  0  0
   -0.6522   10.6178   -7.5964 H   0  0  0  0  0  0  0  0  0  0  0  0
    1.4382   14.3462   -6.0082 H   0  0  0  0  0  0  0  0  0  0  0  0
    0.1696   15.4967   -6.5499 H   0  0  0  0  0  0  0  0  0  0  0  0
    0.1274   14.8336   -4.8810 H   0  0  0  0  0  0  0  0  0  0  0  0
   -6.6284   14.1271  -13.8790 H   0  0  0  0  0  0  0  0  0  0  0  0
   -6.2658   15.4268  -12.6932 H   0  0  0  0  0  0  0  0  0  0  0  0
   -4.2565   13.9474  -14.4640 H   0  0  0  0  0  0  0  0  0  0  0  0
   -4.7758   15.6607  -14.6111 H   0  0  0  0  0  0  0  0  0  0  0  0
   -3.0304   13.2488  -12.7378 H   0  0  0  0  0  0  0  0  0  0  0  0
   -2.4269   14.3849  -11.4842 H   0  0  0  0  0  0  0  0  0  0  0  0
   -4.7488   14.7031  -10.6438 H   0  0  0  0  0  0  0  0  0  0  0  0
   -4.2928   12.9662  -10.6013 H   0  0  0  0  0  0  0  0  0  0  0  0
  1  2  1  0  0  0  0
  1  4  1  0  0  0  0
  1 11  1  0  0  0  0
  2  6  2  0  0  0  0
  3  4  2  0  0  0  0
  3  5  1  0  0  0  0
  5  6  1  0  0  0  0
  5  9  1  0  0  0  0
  6  7  1  0  0  0  0
  7  8  1  0  0  0  0
  7 10  2  3  0  0  0
  8  9  2  0  0  0  0
 10 12  1  0  0  0  0
 11 24  1  0  0  0  0
 11 28  1  0  0  0  0
 12 13  2  0  0  0  0
 12 17  1  0  0  0  0
 13 14  1  0  0  0  0
 14 15  2  0  0  0  0
 15 16  1  0  0  0  0
 15 18  1  0  0  0  0
 16 17  2  0  0  0  0
 18 19  2  0  0  0  0
 18 22  1  0  0  0  0
 19 20  1  0  0  0  0
 20 21  1  0  0  0  0
 20 23  1  0  0  0  0
 21 22  2  0  0  0  0
 24 25  1  0  0  0  0
 25 26  1  0  0  0  0
 26 27  1  0  0  0  0
 27 28  1  0  0  0  0
  1 29  1  0  0  0  0
  2 30  1  0  0  0  0
  3 31  1  0  0  0  0
  4 32  1  0  0  0  0
  5 33  1  0  0  0  0
 10 34  1  0  0  0  0
 13 35  1  0  0  0  0
 14 36  1  0  0  0  0
 16 37  1  0  0  0  0
 17 38  1  0  0  0  0
 19 39  1  0  0  0  0
 22 40  1  0  0  0  0
 23 41  1  0  0  0  0
 23 42  1  0  0  0  0
 23 43  1  0  0  0  0
 24 44  1  0  0  0  0
 24 45  1  0  0  0  0
 25 46  1  0  0  0  0
 25 47  1  0  0  0  0
 27 48  1  0  0  0  0
 27 49  1  0  0  0  0
 28 50  1  0  0  0  0
 28 51  1  0  0  0  0
M  END
> <Name>
28

> <IC50[uM]>
30

$$$$
28
  -OEChem-05192314333D
 Structure written by MMmdl.
 51 55  0     1  0  0  0  0  0999 V2000
   -6.4084   12.3297  -11.9887 C   0  0  0  0  0  0  0  0  0  0  0  0
   -6.5165   11.7544  -10.7314 C   0  0  0  0  0  0  0  0  0  0  0  0
   -7.7418   10.5517  -13.0215 C   0  0  0  0  0  0  0  0  0  0  0  0
   -7.0245   11.7463  -13.1093 C   0  0  0  0  0  0  0  0  0  0  0  0
   -7.8268    9.9859  -11.7428 C   0  0  0  0  0  0  0  0  0  0  0  0
   -7.2396   10.5800  -10.6042 C   0  0  3  0  0  0  0  0  0  0  0  0
   -7.6095    9.7151   -9.5092 C   0  0  0  0  0  0  0  0  0  0  0  0
   -8.2849    8.7010   -9.9773 N   0  0  0  0  0  0  0  0  0  0  0  0
   -8.4373    8.8403  -11.2922 N   0  0  0  0  0  0  0  0  0  0  0  0
   -7.3311    9.8727   -8.0225 C   0  0  0  0  0  0  0  0  0  0  0  0
   -5.6734   13.4955  -12.1182 N   0  0  0  0  0  0  0  0  0  0  0  0
   -5.9616   10.4819   -7.7358 C   0  0  0  0  0  0  0  0  0  0  0  0
   -4.8034    9.7678   -8.0459 C   0  0  0  0  0  0  0  0  0  0  0  0
   -3.5615   10.3255   -7.7934 C   0  0  0  0  0  0  0  0  0  0  0  0
   -3.4526   11.6006   -7.2315 C   0  0  0  0  0  0  0  0  0  0  0  0
   -4.6161   12.3136   -6.9153 C   0  0  0  0  0  0  0  0  0  0  0  0
   -5.8662   11.7565   -7.1617 C   0  0  0  0  0  0  0  0  0  0  0  0
   -2.1079   12.1894   -6.9634 C   0  0  0  0  0  0  0  0  0  0  0  0
   -1.7834   13.4363   -6.4469 C   0  0  0  0  0  0  0  0  0  0  0  0
   -0.4443   13.4911   -6.3955 N   0  0  0  0  0  0  0  0  0  0  0  0
    0.1636   12.4174   -6.8067 N   0  0  0  0  0  0  0  0  0  0  0  0
   -0.8107   11.6018   -7.1804 C   0  0  0  0  0  0  0  0  0  0  0  0
    0.3735   14.6113   -5.9298 C   0  0  0  0  0  0  0  0  0  0  0  0
   -5.8857   14.5071  -13.1620 C   0  0  0  0  0  0  0  0  0  0  0  0
   -4.6042   14.8313  -13.9092 C   0  0  0  0  0  0  0  0  0  0  0  0
   -3.6374   15.2080  -12.9343 O   0  0  0  0  0  0  0  0  0  0  0  0
   -3.2854   14.1223  -12.1198 C   0  0  0  0  0  0  0  0  0  0  0  0
   -4.5109   13.8217  -11.2574 C   0  0  0  0  0  0  0  0  0  0  0  0
   -6.0481   12.2112   -9.8721 H   0  0  0  0  0  0  0  0  0  0  0  0
   -8.2018   10.0931  -13.8843 H   0  0  0  0  0  0  0  0  0  0  0  0
   -7.7253   12.4980  -13.5014 H   0  0  0  0  0  0  0  0  0  0  0  0
   -6.2248   11.5719  -13.8442 H   0  0  0  0  0  0  0  0  0  0  0  0
   -6.3233    9.9928  -10.7645 H   0  0  0  0  0  0  0  0  0  0  0  0
   -8.0292    9.5839   -7.2507 H   0  0  0  0  0  0  0  0  0  0  0  0
   -4.8756    8.7823   -8.4819 H   0  0  0  0  0  0  0  0  0  0  0  0
   -2.6674    9.7693   -8.0332 H   0  0  0  0  0  0  0  0  0  0  0  0
   -4.5421   13.2987   -6.4789 H   0  0  0  0  0  0  0  0  0  0  0  0
   -6.7619   12.3053   -6.9110 H   0  0  0  0  0  0  0  0  0  0  0  0
   -2.4737   14.2103   -6.1456 H   0  0  0  0  0  0  0  0  0  0  0  0
   -0.6522   10.6178   -7.5964 H   0  0  0  0  0  0  0  0  0  0  0  0
    1.4382   14.3462   -6.0082 H   0  0  0  0  0  0  0  0  0  0  0  0
    0.1696   15.4967   -6.5499 H   0  0  0  0  0  0  0  0  0  0  0  0
    0.1274   14.8336   -4.8810 H   0  0  0  0  0  0  0  0  0  0  0  0
   -6.6284   14.1271  -13.8790 H   0  0  0  0  0  0  0  0  0  0  0  0
   -6.2658   15.4268  -12.6932 H   0  0  0  0  0  0  0  0  0  0  0  0
   -4.2565   13.9474  -14.4640 H   0  0  0  0  0  0  0  0  0  0  0  0
   -4.7758   15.6607  -14.6111 H   0  0  0  0  0  0  0  0  0  0  0  0
   -3.0304   13.2488  -12.7378 H   0  0  0  0  0  0  0  0  0  0  0  0
   -2.4269   14.3849  -11.4842 H   0  0  0  0  0  0  0  0  0  0  0  0
   -4.7488   14.7031  -10.6438 H   0  0  0  0  0  0  0  0  0  0  0  0
   -4.2928   12.9662  -10.6013 H   0  0  0  0  0  0  0  0  0  0  0  0
  1  2  2  0  0  0  0
  1  4  1  0  0  0  0
  1 11  1  0  0  0  0
  2  6  1  0  0  0  0
  3  4  1  0  0  0  0
  3  5  2  0  0  0  0
  5  6  1  0  0  0  0
  5  9  1  0  0  0  0
  6  7  1  0  0  0  0
  7  8  1  0  0  0  0
  7 10  2  3  0  0  0
  8  9  2  0  0  0  0
 10 12  1  0  0  0  0
 11 24  1  0  0  0  0
 11 28  1  0  0  0  0
 12 13  2  0  0  0  0
 12 17  1  0  0  0  0
 13 14  1  0  0  0  0
 14 15  2  0  0  0  0
 15 16  1  0  0  0  0
 15 18  1  0  0  0  0
 16 17  2  0  0  0  0
 18 19  2  0  0  0  0
 18 22  1  0  0  0  0
 19 20  1  0  0  0  0
 20 21  1  0  0  0  0
 20 23  1  0  0  0  0
 21 22  2  0  0  0  0
 24 25  1  0  0  0  0
 25 26  1  0  0  0  0
 26 27  1  0  0  0  0
 27 28  1  0  0  0  0
  2 29  1  0  0  0  0
  3 30  1  0  0  0  0
  4 31  1  0  0  0  0
  4 32  1  0  0  0  0
  6 33  1  0  0  0  0
 10 34  1  0  0  0  0
 13 35  1  0  0  0  0
 14 36  1  0  0  0  0
 16 37  1  0  0  0  0
 17 38  1  0  0  0  0
 19 39  1  0  0  0  0
 22 40  1  0  0  0  0
 23 41  1  0  0  0  0
 23 42  1  0  0  0  0
 23 43  1  0  0  0  0
 24 44  1  0  0  0  0
 24 45  1  0  0  0  0
 25 46  1  0  0  0  0
 25 47  1  0  0  0  0
 27 48  1  0  0  0  0
 27 49  1  0  0  0  0
 28 50  1  0  0  0  0
 28 51  1  0  0  0  0
M  END
> <Name>
28

> <IC50[uM]>
30

$$$$
28
  -OEChem-05192314333D
 Structure written by MMmdl.
 51 55  0     1  0  0  0  0  0999 V2000
   -6.4084   12.3297  -11.9887 C   0  0  3  0  0  0  0  0  0  0  0  0
   -6.5165   11.7544  -10.7314 C   0  0  0  0  0  0  0  0  0  0  0  0
   -7.7418   10.5517  -13.0215 C   0  0  0  0  0  0  0  0  0  0  0  0
   -7.0245   11.7463  -13.1093 C   0  0  0  0  0  0  0  0  0  0  0  0
   -7.8268    9.9859  -11.7428 C   0  0  0  0  0  0  0  0  0  0  0  0
   -7.2396   10.5800  -10.6042 C   0  0  0  0  0  0  0  0  0  0  0  0
   -7.6095    9.7151   -9.5092 C   0  0  0  0  0  0  0  0  0  0  0  0
   -8.2849    8.7010   -9.9773 N   0  0  0  0  0  0  0  0  0  0  0  0
   -8.4373    8.8403  -11.2922 N   0  0  0  0  0  0  0  0  0  0  0  0
   -7.3311    9.8727   -8.0225 C   0  0  0  0  0  0  0  0  0  0  0  0
   -5.6734   13.4955  -12.1182 N   0  0  0  0  0  0  0  0  0  0  0  0
   -5.9616   10.4819   -7.7358 C   0  0  0  0  0  0  0  0  0  0  0  0
   -4.8034    9.7678   -8.0459 C   0  0  0  0  0  0  0  0  0  0  0  0
   -3.5615   10.3255   -7.7934 C   0  0  0  0  0  0  0  0  0  0  0  0
   -3.4526   11.6006   -7.2315 C   0  0  0  0  0  0  0  0  0  0  0  0
   -4.6161   12.3136   -6.9153 C   0  0  0  0  0  0  0  0  0  0  0  0
   -5.8662   11.7565   -7.1617 C   0  0  0  0  0  0  0  0  0  0  0  0
   -2.1079   12.1894   -6.9634 C   0  0  0  0  0  0  0  0  0  0  0  0
   -1.7834   13.4363   -6.4469 C   0  0  0  0  0  0  0  0  0  0  0  0
   -0.4443   13.4911   -6.3955 N   0  0  0  0  0  0  0  0  0  0  0  0
    0.1636   12.4174   -6.8067 N   0  0  0  0  0  0  0  0  0  0  0  0
   -0.8107   11.6018   -7.1804 C   0  0  0  0  0  0  0  0  0  0  0  0
    0.3735   14.6113   -5.9298 C   0  0  0  0  0  0  0  0  0  0  0  0
   -5.8857   14.5071  -13.1620 C   0  0  0  0  0  0  0  0  0  0  0  0
   -4.6042   14.8313  -13.9092 C   0  0  0  0  0  0  0  0  0  0  0  0
   -3.6374   15.2080  -12.9343 O   0  0  0  0  0  0  0  0  0  0  0  0
   -3.2854   14.1223  -12.1198 C   0  0  0  0  0  0  0  0  0  0  0  0
   -4.5109   13.8217  -11.2574 C   0  0  0  0  0  0  0  0  0  0  0  0
   -7.3155   12.9217  -11.7969 H   0  0  0  0  0  0  0  0  0  0  0  0
   -6.0481   12.2112   -9.8721 H   0  0  0  0  0  0  0  0  0  0  0  0
   -8.2018   10.0931  -13.8843 H   0  0  0  0  0  0  0  0  0  0  0  0
   -7.7253   12.4980  -13.5014 H   0  0  0  0  0  0  0  0  0  0  0  0
   -6.2248   11.5719  -13.8442 H   0  0  0  0  0  0  0  0  0  0  0  0
   -8.0292    9.5839   -7.2507 H   0  0  0  0  0  0  0  0  0  0  0  0
   -4.8756    8.7823   -8.4819 H   0  0  0  0  0  0  0  0  0  0  0  0
   -2.6674    9.7693   -8.0332 H   0  0  0  0  0  0  0  0  0  0  0  0
   -4.5421   13.2987   -6.4789 H   0  0  0  0  0  0  0  0  0  0  0  0
   -6.7619   12.3053   -6.9110 H   0  0  0  0  0  0  0  0  0  0  0  0
   -2.4737   14.2103   -6.1456 H   0  0  0  0  0  0  0  0  0  0  0  0
   -0.6522   10.6178   -7.5964 H   0  0  0  0  0  0  0  0  0  0  0  0
    1.4382   14.3462   -6.0082 H   0  0  0  0  0  0  0  0  0  0  0  0
    0.1696   15.4967   -6.5499 H   0  0  0  0  0  0  0  0  0  0  0  0
    0.1274   14.8336   -4.8810 H   0  0  0  0  0  0  0  0  0  0  0  0
   -6.6284   14.1271  -13.8790 H   0  0  0  0  0  0  0  0  0  0  0  0
   -6.2658   15.4268  -12.6932 H   0  0  0  0  0  0  0  0  0  0  0  0
   -4.2565   13.9474  -14.4640 H   0  0  0  0  0  0  0  0  0  0  0  0
   -4.7758   15.6607  -14.6111 H   0  0  0  0  0  0  0  0  0  0  0  0
   -3.0304   13.2488  -12.7378 H   0  0  0  0  0  0  0  0  0  0  0  0
   -2.4269   14.3849  -11.4842 H   0  0  0  0  0  0  0  0  0  0  0  0
   -4.7488   14.7031  -10.6438 H   0  0  0  0  0  0  0  0  0  0  0  0
   -4.2928   12.9662  -10.6013 H   0  0  0  0  0  0  0  0  0  0  0  0
  1  2  1  0  0  0  0
  1  4  1  0  0  0  0
  1 11  1  0  0  0  0
  2  6  2  0  0  0  0
  3  4  1  0  0  0  0
  3  5  2  0  0  0  0
  5  6  1  0  0  0  0
  5  9  1  0  0  0  0
  6  7  1  0  0  0  0
  7  8  1  0  0  0  0
  7 10  2  3  0  0  0
  8  9  2  0  0  0  0
 10 12  1  0  0  0  0
 11 24  1  0  0  0  0
 11 28  1  0  0  0  0
 12 13  2  0  0  0  0
 12 17  1  0  0  0  0
 13 14  1  0  0  0  0
 14 15  2  0  0  0  0
 15 16  1  0  0  0  0
 15 18  1  0  0  0  0
 16 17  2  0  0  0  0
 18 19  2  0  0  0  0
 18 22  1  0  0  0  0
 19 20  1  0  0  0  0
 20 21  1  0  0  0  0
 20 23  1  0  0  0  0
 21 22  2  0  0  0  0
 24 25  1  0  0  0  0
 25 26  1  0  0  0  0
 26 27  1  0  0  0  0
 27 28  1  0  0  0  0
  1 29  1  0  0  0  0
  2 30  1  0  0  0  0
  3 31  1  0  0  0  0
  4 32  1  0  0  0  0
  4 33  1  0  0  0  0
 10 34  1  0  0  0  0
 13 35  1  0  0  0  0
 14 36  1  0  0  0  0
 16 37  1  0  0  0  0
 17 38  1  0  0  0  0
 19 39  1  0  0  0  0
 22 40  1  0  0  0  0
 23 41  1  0  0  0  0
 23 42  1  0  0  0  0
 23 43  1  0  0  0  0
 24 44  1  0  0  0  0
 24 45  1  0  0  0  0
 25 46  1  0  0  0  0
 25 47  1  0  0  0  0
 27 48  1  0  0  0  0
 27 49  1  0  0  0  0
 28 50  1  0  0  0  0
 28 51  1  0  0  0  0
M  END
> <Name>
28

> <IC50[uM]>
30

$$$$
28
  -OEChem-05192314333D
 Structure written by MMmdl.
 51 55  0     1  0  0  0  0  0999 V2000
   -6.4084   12.3297  -11.9887 C   0  0  0  0  0  0  0  0  0  0  0  0
   -6.5165   11.7544  -10.7314 C   0  0  0  0  0  0  0  0  0  0  0  0
   -7.7418   10.5517  -13.0215 C   0  0  0  0  0  0  0  0  0  0  0  0
   -7.0245   11.7463  -13.1093 C   0  0  0  0  0  0  0  0  0  0  0  0
   -7.8268    9.9859  -11.7428 C   0  0  3  0  0  0  0  0  0  0  0  0
   -7.2396   10.5800  -10.6042 C   0  0  0  0  0  0  0  0  0  0  0  0
   -7.6095    9.7151   -9.5092 C   0  0  0  0  0  0  0  0  0  0  0  0
   -8.2849    8.7010   -9.9773 N   0  0  0  0  0  0  0  0  0  0  0  0
   -8.4373    8.8403  -11.2922 N   0  0  0  0  0  0  0  0  0  0  0  0
   -7.3311    9.8727   -8.0225 C   0  0  0  0  0  0  0  0  0  0  0  0
   -5.6734   13.4955  -12.1182 N   0  0  0  0  0  0  0  0  0  0  0  0
   -5.9616   10.4819   -7.7358 C   0  0  0  0  0  0  0  0  0  0  0  0
   -4.8034    9.7678   -8.0459 C   0  0  0  0  0  0  0  0  0  0  0  0
   -3.5615   10.3255   -7.7934 C   0  0  0  0  0  0  0  0  0  0  0  0
   -3.4526   11.6006   -7.2315 C   0  0  0  0  0  0  0  0  0  0  0  0
   -4.6161   12.3136   -6.9153 C   0  0  0  0  0  0  0  0  0  0  0  0
   -5.8662   11.7565   -7.1617 C   0  0  0  0  0  0  0  0  0  0  0  0
   -2.1079   12.1894   -6.9634 C   0  0  0  0  0  0  0  0  0  0  0  0
   -1.7834   13.4363   -6.4469 C   0  0  0  0  0  0  0  0  0  0  0  0
   -0.4443   13.4911   -6.3955 N   0  0  0  0  0  0  0  0  0  0  0  0
    0.1636   12.4174   -6.8067 N   0  0  0  0  0  0  0  0  0  0  0  0
   -0.8107   11.6018   -7.1804 C   0  0  0  0  0  0  0  0  0  0  0  0
    0.3735   14.6113   -5.9298 C   0  0  0  0  0  0  0  0  0  0  0  0
   -5.8857   14.5071  -13.1620 C   0  0  0  0  0  0  0  0  0  0  0  0
   -4.6042   14.8313  -13.9092 C   0  0  0  0  0  0  0  0  0  0  0  0
   -3.6374   15.2080  -12.9343 O   0  0  0  0  0  0  0  0  0  0  0  0
   -3.2854   14.1223  -12.1198 C   0  0  0  0  0  0  0  0  0  0  0  0
   -4.5109   13.8217  -11.2574 C   0  0  0  0  0  0  0  0  0  0  0  0
   -6.0481   12.2112   -9.8721 H   0  0  0  0  0  0  0  0  0  0  0  0
   -8.7656   10.7458  -13.3738 H   0  0  0  0  0  0  0  0  0  0  0  0
   -7.2589    9.8183  -13.6840 H   0  0  0  0  0  0  0  0  0  0  0  0
   -6.9404   12.2372  -14.0676 H   0  0  0  0  0  0  0  0  0  0  0  0
   -6.9008    9.4219  -11.9286 H   0  0  0  0  0  0  0  0  0  0  0  0
   -8.0292    9.5839   -7.2507 H   0  0  0  0  0  0  0  0  0  0  0  0
   -4.8756    8.7823   -8.4819 H   0  0  0  0  0  0  0  0  0  0  0  0
   -2.6674    9.7693   -8.0332 H   0  0  0  0  0  0  0  0  0  0  0  0
   -4.5421   13.2987   -6.4789 H   0  0  0  0  0  0  0  0  0  0  0  0
   -6.7619   12.3053   -6.9110 H   0  0  0  0  0  0  0  0  0  0  0  0
   -2.4737   14.2103   -6.1456 H   0  0  0  0  0  0  0  0  0  0  0  0
   -0.6522   10.6178   -7.5964 H   0  0  0  0  0  0  0  0  0  0  0  0
    1.4382   14.3462   -6.0082 H   0  0  0  0  0  0  0  0  0  0  0  0
    0.1696   15.4967   -6.5499 H   0  0  0  0  0  0  0  0  0  0  0  0
    0.1274   14.8336   -4.8810 H   0  0  0  0  0  0  0  0  0  0  0  0
   -6.6284   14.1271  -13.8790 H   0  0  0  0  0  0  0  0  0  0  0  0
   -6.2658   15.4268  -12.6932 H   0  0  0  0  0  0  0  0  0  0  0  0
   -4.2565   13.9474  -14.4640 H   0  0  0  0  0  0  0  0  0  0  0  0
   -4.7758   15.6607  -14.6111 H   0  0  0  0  0  0  0  0  0  0  0  0
   -3.0304   13.2488  -12.7378 H   0  0  0  0  0  0  0  0  0  0  0  0
   -2.4269   14.3849  -11.4842 H   0  0  0  0  0  0  0  0  0  0  0  0
   -4.7488   14.7031  -10.6438 H   0  0  0  0  0  0  0  0  0  0  0  0
   -4.2928   12.9662  -10.6013 H   0  0  0  0  0  0  0  0  0  0  0  0
  1  2  1  0  0  0  0
  1  4  2  0  0  0  0
  1 11  1  0  0  0  0
  2  6  2  0  0  0  0
  3  4  1  0  0  0  0
  3  5  1  0  0  0  0
  5  6  1  0  0  0  0
  5  9  1  0  0  0  0
  6  7  1  0  0  0  0
  7  8  1  0  0  0  0
  7 10  2  3  0  0  0
  8  9  2  0  0  0  0
 10 12  1  0  0  0  0
 11 24  1  0  0  0  0
 11 28  1  0  0  0  0
 12 13  2  0  0  0  0
 12 17  1  0  0  0  0
 13 14  1  0  0  0  0
 14 15  2  0  0  0  0
 15 16  1  0  0  0  0
 15 18  1  0  0  0  0
 16 17  2  0  0  0  0
 18 19  2  0  0  0  0
 18 22  1  0  0  0  0
 19 20  1  0  0  0  0
 20 21  1  0  0  0  0
 20 23  1  0  0  0  0
 21 22  2  0  0  0  0
 24 25  1  0  0  0  0
 25 26  1  0  0  0  0
 26 27  1  0  0  0  0
 27 28  1  0  0  0  0
  2 29  1  0  0  0  0
  3 30  1  0  0  0  0
  3 31  1  0  0  0  0
  4 32  1  0  0  0  0
  5 33  1  0  0  0  0
 10 34  1  0  0  0  0
 13 35  1  0  0  0  0
 14 36  1  0  0  0  0
 16 37  1  0  0  0  0
 17 38  1  0  0  0  0
 19 39  1  0  0  0  0
 22 40  1  0  0  0  0
 23 41  1  0  0  0  0
 23 42  1  0  0  0  0
 23 43  1  0  0  0  0
 24 44  1  0  0  0  0
 24 45  1  0  0  0  0
 25 46  1  0  0  0  0
 25 47  1  0  0  0  0
 27 48  1  0  0  0  0
 27 49  1  0  0  0  0
 28 50  1  0  0  0  0
 28 51  1  0  0  0  0
M  END
> <Name>
28

> <IC50[uM]>
30

$$$$
28
  -OEChem-05192314333D
 Structure written by MMmdl.
 51 55  0     0  0  0  0  0  0999 V2000
   -6.4084   12.3297  -11.9887 C   0  0  0  0  0  0  0  0  0  0  0  0
   -6.5165   11.7544  -10.7314 C   0  0  0  0  0  0  0  0  0  0  0  0
   -7.7418   10.5517  -13.0215 C   0  0  0  0  0  0  0  0  0  0  0  0
   -7.0245   11.7463  -13.1093 C   0  0  0  0  0  0  0  0  0  0  0  0
   -7.8268    9.9859  -11.7428 C   0  0  0  0  0  0  0  0  0  0  0  0
   -7.2396   10.5800  -10.6042 C   0  0  0  0  0  0  0  0  0  0  0  0
   -7.6095    9.7151   -9.5092 C   0  0  0  0  0  0  0  0  0  0  0  0
   -8.2849    8.7010   -9.9773 N   0  0  0  0  0  0  0  0  0  0  0  0
   -8.4373    8.8403  -11.2922 N   0  0  0  0  0  0  0  0  0  0  0  0
   -7.3311    9.8727   -8.0225 C   0  0  0  0  0  0  0  0  0  0  0  0
   -5.6734   13.4955  -12.1182 N   0  0  0  0  0  0  0  0  0  0  0  0
   -5.9616   10.4819   -7.7358 C   0  0  0  0  0  0  0  0  0  0  0  0
   -4.8034    9.7678   -8.0459 C   0  0  0  0  0  0  0  0  0  0  0  0
   -3.5615   10.3255   -7.7934 C   0  0  0  0  0  0  0  0  0  0  0  0
   -3.4526   11.6006   -7.2315 C   0  0  0  0  0  0  0  0  0  0  0  0
   -4.6161   12.3136   -6.9153 C   0  0  0  0  0  0  0  0  0  0  0  0
   -5.8662   11.7565   -7.1617 C   0  0  0  0  0  0  0  0  0  0  0  0
   -2.1079   12.1894   -6.9634 C   0  0  0  0  0  0  0  0  0  0  0  0
   -1.7834   13.4363   -6.4469 C   0  0  0  0  0  0  0  0  0  0  0  0
   -0.4443   13.4911   -6.3955 N   0  0  0  0  0  0  0  0  0  0  0  0
    0.1636   12.4174   -6.8067 N   0  0  0  0  0  0  0  0  0  0  0  0
   -0.8107   11.6018   -7.1804 C   0  0  0  0  0  0  0  0  0  0  0  0
    0.3735   14.6113   -5.9298 C   0  0  0  0  0  0  0  0  0  0  0  0
   -5.8857   14.5071  -13.1620 C   0  0  0  0  0  0  0  0  0  0  0  0
   -4.6042   14.8313  -13.9092 C   0  0  0  0  0  0  0  0  0  0  0  0
   -3.6374   15.2080  -12.9343 O   0  0  0  0  0  0  0  0  0  0  0  0
   -3.2854   14.1223  -12.1198 C   0  0  0  0  0  0  0  0  0  0  0  0
   -4.5109   13.8217  -11.2574 C   0  0  0  0  0  0  0  0  0  0  0  0
   -6.0481   12.2112   -9.8721 H   0  0  0  0  0  0  0  0  0  0  0  0
   -8.7656   10.7458  -13.3738 H   0  0  0  0  0  0  0  0  0  0  0  0
   -7.2589    9.8183  -13.6840 H   0  0  0  0  0  0  0  0  0  0  0  0
   -7.7253   12.4980  -13.5014 H   0  0  0  0  0  0  0  0  0  0  0  0
   -6.2248   11.5719  -13.8442 H   0  0  0  0  0  0  0  0  0  0  0  0
   -8.0292    9.5839   -7.2507 H   0  0  0  0  0  0  0  0  0  0  0  0
   -4.8756    8.7823   -8.4819 H   0  0  0  0  0  0  0  0  0  0  0  0
   -2.6674    9.7693   -8.0332 H   0  0  0  0  0  0  0  0  0  0  0  0
   -4.5421   13.2987   -6.4789 H   0  0  0  0  0  0  0  0  0  0  0  0
   -6.7619   12.3053   -6.9110 H   0  0  0  0  0  0  0  0  0  0  0  0
   -2.4737   14.2103   -6.1456 H   0  0  0  0  0  0  0  0  0  0  0  0
   -0.6522   10.6178   -7.5964 H   0  0  0  0  0  0  0  0  0  0  0  0
    1.4382   14.3462   -6.0082 H   0  0  0  0  0  0  0  0  0  0  0  0
    0.1696   15.4967   -6.5499 H   0  0  0  0  0  0  0  0  0  0  0  0
    0.1274   14.8336   -4.8810 H   0  0  0  0  0  0  0  0  0  0  0  0
   -6.6284   14.1271  -13.8790 H   0  0  0  0  0  0  0  0  0  0  0  0
   -6.2658   15.4268  -12.6932 H   0  0  0  0  0  0  0  0  0  0  0  0
   -4.2565   13.9474  -14.4640 H   0  0  0  0  0  0  0  0  0  0  0  0
   -4.7758   15.6607  -14.6111 H   0  0  0  0  0  0  0  0  0  0  0  0
   -3.0304   13.2488  -12.7378 H   0  0  0  0  0  0  0  0  0  0  0  0
   -2.4269   14.3849  -11.4842 H   0  0  0  0  0  0  0  0  0  0  0  0
   -4.7488   14.7031  -10.6438 H   0  0  0  0  0  0  0  0  0  0  0  0
   -4.2928   12.9662  -10.6013 H   0  0  0  0  0  0  0  0  0  0  0  0
  1  2  2  0  0  0  0
  1  4  1  0  0  0  0
  1 11  1  0  0  0  0
  2  6  1  0  0  0  0
  3  4  1  0  0  0  0
  3  5  1  0  0  0  0
  5  6  2  0  0  0  0
  5  9  1  0  0  0  0
  6  7  1  0  0  0  0
  7  8  1  0  0  0  0
  7 10  2  3  0  0  0
  8  9  2  0  0  0  0
 10 12  1  0  0  0  0
 11 24  1  0  0  0  0
 11 28  1  0  0  0  0
 12 13  2  0  0  0  0
 12 17  1  0  0  0  0
 13 14  1  0  0  0  0
 14 15  2  0  0  0  0
 15 16  1  0  0  0  0
 15 18  1  0  0  0  0
 16 17  2  0  0  0  0
 18 19  2  0  0  0  0
 18 22  1  0  0  0  0
 19 20  1  0  0  0  0
 20 21  1  0  0  0  0
 20 23  1  0  0  0  0
 21 22  2  0  0  0  0
 24 25  1  0  0  0  0
 25 26  1  0  0  0  0
 26 27  1  0  0  0  0
 27 28  1  0  0  0  0
  2 29  1  0  0  0  0
  3 30  1  0  0  0  0
  3 31  1  0  0  0  0
  4 32  1  0  0  0  0
  4 33  1  0  0  0  0
 10 34  1  0  0  0  0
 13 35  1  0  0  0  0
 14 36  1  0  0  0  0
 16 37  1  0  0  0  0
 17 38  1  0  0  0  0
 19 39  1  0  0  0  0
 22 40  1  0  0  0  0
 23 41  1  0  0  0  0
 23 42  1  0  0  0  0
 23 43  1  0  0  0  0
 24 44  1  0  0  0  0
 24 45  1  0  0  0  0
 25 46  1  0  0  0  0
 25 47  1  0  0  0  0
 27 48  1  0  0  0  0
 27 49  1  0  0  0  0
 28 50  1  0  0  0  0
 28 51  1  0  0  0  0
M  END
> <Name>
28

> <IC50[uM]>
30

$$$$
28
  -OEChem-05192314333D
 Structure written by MMmdl.
 51 55  0     1  0  0  0  0  0999 V2000
   -6.4084   12.3297  -11.9887 C   0  0  0  0  0  0  0  0  0  0  0  0
   -6.5165   11.7544  -10.7314 C   0  0  0  0  0  0  0  0  0  0  0  0
   -7.7418   10.5517  -13.0215 C   0  0  0  0  0  0  0  0  0  0  0  0
   -7.0245   11.7463  -13.1093 C   0  0  0  0  0  0  0  0  0  0  0  0
   -7.8268    9.9859  -11.7428 C   0  0  0  0  0  0  0  0  0  0  0  0
   -7.2396   10.5800  -10.6042 C   0  0  0  0  0  0  0  0  0  0  0  0
   -7.6095    9.7151   -9.5092 C   0  0  0  0  0  0  0  0  0  0  0  0
   -8.2849    8.7010   -9.9773 N   0  0  0  0  0  0  0  0  0  0  0  0
   -8.4373    8.8403  -11.2922 N   0  0  0  0  0  0  0  0  0  0  0  0
   -7.3311    9.8727   -8.0225 C   0  0  0  0  0  0  0  0  0  0  0  0
   -5.6734   13.4955  -12.1182 N   0  0  0  0  0  0  0  0  0  0  0  0
   -5.9616   10.4819   -7.7358 C   0  0  0  0  0  0  0  0  0  0  0  0
   -4.8034    9.7678   -8.0459 C   0  0  0  0  0  0  0  0  0  0  0  0
   -3.5615   10.3255   -7.7934 C   0  0  0  0  0  0  0  0  0  0  0  0
   -3.4526   11.6006   -7.2315 C   0  0  3  0  0  0  0  0  0  0  0  0
   -4.6161   12.3136   -6.9153 C   0  0  0  0  0  0  0  0  0  0  0  0
   -5.8662   11.7565   -7.1617 C   0  0  0  0  0  0  0  0  0  0  0  0
   -2.1079   12.1894   -6.9634 C   0  0  0  0  0  0  0  0  0  0  0  0
   -1.7834   13.4363   -6.4469 C   0  0  0  0  0  0  0  0  0  0  0  0
   -0.4443   13.4911   -6.3955 N   0  0  0  0  0  0  0  0  0  0  0  0
    0.1636   12.4174   -6.8067 N   0  0  0  0  0  0  0  0  0  0  0  0
   -0.8107   11.6018   -7.1804 C   0  0  0  0  0  0  0  0  0  0  0  0
    0.3735   14.6113   -5.9298 C   0  0  0  0  0  0  0  0  0  0  0  0
   -5.8857   14.5071  -13.1620 C   0  0  0  0  0  0  0  0  0  0  0  0
   -4.6042   14.8313  -13.9092 C   0  0  0  0  0  0  0  0  0  0  0  0
   -3.6374   15.2080  -12.9343 O   0  0  0  0  0  0  0  0  0  0  0  0
   -3.2854   14.1223  -12.1198 C   0  0  0  0  0  0  0  0  0  0  0  0
   -4.5109   13.8217  -11.2574 C   0  0  0  0  0  0  0  0  0  0  0  0
   -6.0481   12.2112   -9.8721 H   0  0  0  0  0  0  0  0  0  0  0  0
   -8.2018   10.0931  -13.8843 H   0  0  0  0  0  0  0  0  0  0  0  0
   -6.9404   12.2372  -14.0676 H   0  0  0  0  0  0  0  0  0  0  0  0
   -8.0292    9.5839   -7.2507 H   0  0  0  0  0  0  0  0  0  0  0  0
   -4.8756    8.7823   -8.4819 H   0  0  0  0  0  0  0  0  0  0  0  0
   -3.0403    9.6366   -7.1124 H   0  0  0  0  0  0  0  0  0  0  0  0
   -3.0311   10.3602   -8.7564 H   0  0  0  0  0  0  0  0  0  0  0  0
   -3.4498   12.0463   -8.2372 H   0  0  0  0  0  0  0  0  0  0  0  0
   -4.5421   13.2987   -6.4789 H   0  0  0  0  0  0  0  0  0  0  0  0
   -6.7619   12.3053   -6.9110 H   0  0  0  0  0  0  0  0  0  0  0  0
   -2.4737   14.2103   -6.1456 H   0  0  0  0  0  0  0  0  0  0  0  0
   -0.6522   10.6178   -7.5964 H   0  0  0  0  0  0  0  0  0  0  0  0
    1.4382   14.3462   -6.0082 H   0  0  0  0  0  0  0  0  0  0  0  0
    0.1696   15.4967   -6.5499 H   0  0  0  0  0  0  0  0  0  0  0  0
    0.1274   14.8336   -4.8810 H   0  0  0  0  0  0  0  0  0  0  0  0
   -6.6284   14.1271  -13.8790 H   0  0  0  0  0  0  0  0  0  0  0  0
   -6.2658   15.4268  -12.6932 H   0  0  0  0  0  0  0  0  0  0  0  0
   -4.2565   13.9474  -14.4640 H   0  0  0  0  0  0  0  0  0  0  0  0
   -4.7758   15.6607  -14.6111 H   0  0  0  0  0  0  0  0  0  0  0  0
   -3.0304   13.2488  -12.7378 H   0  0  0  0  0  0  0  0  0  0  0  0
   -2.4269   14.3849  -11.4842 H   0  0  0  0  0  0  0  0  0  0  0  0
   -4.7488   14.7031  -10.6438 H   0  0  0  0  0  0  0  0  0  0  0  0
   -4.2928   12.9662  -10.6013 H   0  0  0  0  0  0  0  0  0  0  0  0
  1  2  2  0  0  0  0
  1  4  1  0  0  0  0
  1 11  1  0  0  0  0
  2  6  1  0  0  0  0
  3  4  2  0  0  0  0
  3  5  1  0  0  0  0
  5  6  2  0  0  0  0
  5  9  1  0  0  0  0
  6  7  1  0  0  0  0
  7  8  1  0  0  0  0
  7 10  2  3  0  0  0
  8  9  2  0  0  0  0
 10 12  1  0  0  0  0
 11 24  1  0  0  0  0
 11 28  1  0  0  0  0
 12 13  2  0  0  0  0
 12 17  1  0  0  0  0
 13 14  1  0  0  0  0
 14 15  1  0  0  0  0
 15 16  1  0  0  0  0
 15 18  1  0  0  0  0
 16 17  2  0  0  0  0
 18 19  2  0  0  0  0
 18 22  1  0  0  0  0
 19 20  1  0  0  0  0
 20 21  1  0  0  0  0
 20 23  1  0  0  0  0
 21 22  2  0  0  0  0
 24 25  1  0  0  0  0
 25 26  1  0  0  0  0
 26 27  1  0  0  0  0
 27 28  1  0  0  0  0
  2 29  1  0  0  0  0
  3 30  1  0  0  0  0
  4 31  1  0  0  0  0
 10 32  1  0  0  0  0
 13 33  1  0  0  0  0
 14 34  1  0  0  0  0
 14 35  1  0  0  0  0
 15 36  1  0  0  0  0
 16 37  1  0  0  0  0
 17 38  1  0  0  0  0
 19 39  1  0  0  0  0
 22 40  1  0  0  0  0
 23 41  1  0  0  0  0
 23 42  1  0  0  0  0
 23 43  1  0  0  0  0
 24 44  1  0  0  0  0
 24 45  1  0  0  0  0
 25 46  1  0  0  0  0
 25 47  1  0  0  0  0
 27 48  1  0  0  0  0
 27 49  1  0  0  0  0
 28 50  1  0  0  0  0
 28 51  1  0  0  0  0
M  END
> <Name>
28

> <IC50[uM]>
30

$$$$
28
  -OEChem-05192314333D
 Structure written by MMmdl.
 51 55  0     1  0  0  0  0  0999 V2000
   -6.4084   12.3297  -11.9887 C   0  0  0  0  0  0  0  0  0  0  0  0
   -6.5165   11.7544  -10.7314 C   0  0  0  0  0  0  0  0  0  0  0  0
   -7.7418   10.5517  -13.0215 C   0  0  0  0  0  0  0  0  0  0  0  0
   -7.0245   11.7463  -13.1093 C   0  0  0  0  0  0  0  0  0  0  0  0
   -7.8268    9.9859  -11.7428 C   0  0  0  0  0  0  0  0  0  0  0  0
   -7.2396   10.5800  -10.6042 C   0  0  0  0  0  0  0  0  0  0  0  0
   -7.6095    9.7151   -9.5092 C   0  0  0  0  0  0  0  0  0  0  0  0
   -8.2849    8.7010   -9.9773 N   0  0  0  0  0  0  0  0  0  0  0  0
   -8.4373    8.8403  -11.2922 N   0  0  0  0  0  0  0  0  0  0  0  0
   -7.3311    9.8727   -8.0225 C   0  0  0  0  0  0  0  0  0  0  0  0
   -5.6734   13.4955  -12.1182 N   0  0  0  0  0  0  0  0  0  0  0  0
   -5.9616   10.4819   -7.7358 C   0  0  3  0  0  0  0  0  0  0  0  0
   -4.8034    9.7678   -8.0459 C   0  0  0  0  0  0  0  0  0  0  0  0
   -3.5615   10.3255   -7.7934 C   0  0  0  0  0  0  0  0  0  0  0  0
   -3.4526   11.6006   -7.2315 C   0  0  0  0  0  0  0  0  0  0  0  0
   -4.6161   12.3136   -6.9153 C   0  0  0  0  0  0  0  0  0  0  0  0
   -5.8662   11.7565   -7.1617 C   0  0  0  0  0  0  0  0  0  0  0  0
   -2.1079   12.1894   -6.9634 C   0  0  0  0  0  0  0  0  0  0  0  0
   -1.7834   13.4363   -6.4469 C   0  0  0  0  0  0  0  0  0  0  0  0
   -0.4443   13.4911   -6.3955 N   0  0  0  0  0  0  0  0  0  0  0  0
    0.1636   12.4174   -6.8067 N   0  0  0  0  0  0  0  0  0  0  0  0
   -0.8107   11.6018   -7.1804 C   0  0  0  0  0  0  0  0  0  0  0  0
    0.3735   14.6113   -5.9298 C   0  0  0  0  0  0  0  0  0  0  0  0
   -5.8857   14.5071  -13.1620 C   0  0  0  0  0  0  0  0  0  0  0  0
   -4.6042   14.8313  -13.9092 C   0  0  0  0  0  0  0  0  0  0  0  0
   -3.6374   15.2080  -12.9343 O   0  0  0  0  0  0  0  0  0  0  0  0
   -3.2854   14.1223  -12.1198 C   0  0  0  0  0  0  0  0  0  0  0  0
   -4.5109   13.8217  -11.2574 C   0  0  0  0  0  0  0  0  0  0  0  0
   -6.0481   12.2112   -9.8721 H   0  0  0  0  0  0  0  0  0  0  0  0
   -8.2018   10.0931  -13.8843 H   0  0  0  0  0  0  0  0  0  0  0  0
   -6.9404   12.2372  -14.0676 H   0  0  0  0  0  0  0  0  0  0  0  0
   -8.0292    9.5839   -7.2507 H   0  0  0  0  0  0  0  0  0  0  0  0
   -5.9522   10.9330   -8.7390 H   0  0  0  0  0  0  0  0  0  0  0  0
   -4.8756    8.7823   -8.4819 H   0  0  0  0  0  0  0  0  0  0  0  0
   -2.6674    9.7693   -8.0332 H   0  0  0  0  0  0  0  0  0  0  0  0
   -4.5421   13.2987   -6.4789 H   0  0  0  0  0  0  0  0  0  0  0  0
   -6.3960   12.4483   -7.8331 H   0  0  0  0  0  0  0  0  0  0  0  0
   -6.3899   11.7102   -6.1955 H   0  0  0  0  0  0  0  0  0  0  0  0
   -2.4737   14.2103   -6.1456 H   0  0  0  0  0  0  0  0  0  0  0  0
   -0.6522   10.6178   -7.5964 H   0  0  0  0  0  0  0  0  0  0  0  0
    1.4382   14.3462   -6.0082 H   0  0  0  0  0  0  0  0  0  0  0  0
    0.1696   15.4967   -6.5499 H   0  0  0  0  0  0  0  0  0  0  0  0
    0.1274   14.8336   -4.8810 H   0  0  0  0  0  0  0  0  0  0  0  0
   -6.6284   14.1271  -13.8790 H   0  0  0  0  0  0  0  0  0  0  0  0
   -6.2658   15.4268  -12.6932 H   0  0  0  0  0  0  0  0  0  0  0  0
   -4.2565   13.9474  -14.4640 H   0  0  0  0  0  0  0  0  0  0  0  0
   -4.7758   15.6607  -14.6111 H   0  0  0  0  0  0  0  0  0  0  0  0
   -3.0304   13.2488  -12.7378 H   0  0  0  0  0  0  0  0  0  0  0  0
   -2.4269   14.3849  -11.4842 H   0  0  0  0  0  0  0  0  0  0  0  0
   -4.7488   14.7031  -10.6438 H   0  0  0  0  0  0  0  0  0  0  0  0
   -4.2928   12.9662  -10.6013 H   0  0  0  0  0  0  0  0  0  0  0  0
  1  2  2  0  0  0  0
  1  4  1  0  0  0  0
  1 11  1  0  0  0  0
  2  6  1  0  0  0  0
  3  4  2  0  0  0  0
  3  5  1  0  0  0  0
  5  6  2  0  0  0  0
  5  9  1  0  0  0  0
  6  7  1  0  0  0  0
  7  8  1  0  0  0  0
  7 10  2  3  0  0  0
  8  9  2  0  0  0  0
 10 12  1  0  0  0  0
 11 24  1  0  0  0  0
 11 28  1  0  0  0  0
 12 13  1  0  0  0  0
 12 17  1  0  0  0  0
 13 14  2  0  0  0  0
 14 15  1  0  0  0  0
 15 16  2  0  0  0  0
 15 18  1  0  0  0  0
 16 17  1  0  0  0  0
 18 19  2  0  0  0  0
 18 22  1  0  0  0  0
 19 20  1  0  0  0  0
 20 21  1  0  0  0  0
 20 23  1  0  0  0  0
 21 22  2  0  0  0  0
 24 25  1  0  0  0  0
 25 26  1  0  0  0  0
 26 27  1  0  0  0  0
 27 28  1  0  0  0  0
  2 29  1  0  0  0  0
  3 30  1  0  0  0  0
  4 31  1  0  0  0  0
 10 32  1  0  0  0  0
 12 33  1  0  0  0  0
 13 34  1  0  0  0  0
 14 35  1  0  0  0  0
 16 36  1  0  0  0  0
 17 37  1  0  0  0  0
 17 38  1  0  0  0  0
 19 39  1  0  0  0  0
 22 40  1  0  0  0  0
 23 41  1  0  0  0  0
 23 42  1  0  0  0  0
 23 43  1  0  0  0  0
 24 44  1  0  0  0  0
 24 45  1  0  0  0  0
 25 46  1  0  0  0  0
 25 47  1  0  0  0  0
 27 48  1  0  0  0  0
 27 49  1  0  0  0  0
 28 50  1  0  0  0  0
 28 51  1  0  0  0  0
M  END
> <Name>
28

> <IC50[uM]>
30

$$$$
28
  -OEChem-05192314333D
 Structure written by MMmdl.
 51 55  0     1  0  0  0  0  0999 V2000
   -6.4084   12.3297  -11.9887 C   0  0  0  0  0  0  0  0  0  0  0  0
   -6.5165   11.7544  -10.7314 C   0  0  0  0  0  0  0  0  0  0  0  0
   -7.7418   10.5517  -13.0215 C   0  0  0  0  0  0  0  0  0  0  0  0
   -7.0245   11.7463  -13.1093 C   0  0  0  0  0  0  0  0  0  0  0  0
   -7.8268    9.9859  -11.7428 C   0  0  0  0  0  0  0  0  0  0  0  0
   -7.2396   10.5800  -10.6042 C   0  0  0  0  0  0  0  0  0  0  0  0
   -7.6095    9.7151   -9.5092 C   0  0  3  0  0  0  0  0  0  0  0  0
   -8.2849    8.7010   -9.9773 N   0  0  0  0  0  0  0  0  0  0  0  0
   -8.4373    8.8403  -11.2922 N   0  0  0  0  0  0  0  0  0  0  0  0
   -7.3311    9.8727   -8.0225 C   0  0  0  0  0  0  0  0  0  0  0  0
   -5.6734   13.4955  -12.1182 N   0  0  0  0  0  0  0  0  0  0  0  0
   -5.9616   10.4819   -7.7358 C   0  0  0  0  0  0  0  0  0  0  0  0
   -4.8034    9.7678   -8.0459 C   0  0  0  0  0  0  0  0  0  0  0  0
   -3.5615   10.3255   -7.7934 C   0  0  0  0  0  0  0  0  0  0  0  0
   -3.4526   11.6006   -7.2315 C   0  0  0  0  0  0  0  0  0  0  0  0
   -4.6161   12.3136   -6.9153 C   0  0  0  0  0  0  0  0  0  0  0  0
   -5.8662   11.7565   -7.1617 C   0  0  0  0  0  0  0  0  0  0  0  0
   -2.1079   12.1894   -6.9634 C   0  0  0  0  0  0  0  0  0  0  0  0
   -1.7834   13.4363   -6.4469 C   0  0  0  0  0  0  0  0  0  0  0  0
   -0.4443   13.4911   -6.3955 N   0  0  0  0  0  0  0  0  0  0  0  0
    0.1636   12.4174   -6.8067 N   0  0  0  0  0  0  0  0  0  0  0  0
   -0.8107   11.6018   -7.1804 C   0  0  0  0  0  0  0  0  0  0  0  0
    0.3735   14.6113   -5.9298 C   0  0  0  0  0  0  0  0  0  0  0  0
   -5.8857   14.5071  -13.1620 C   0  0  0  0  0  0  0  0  0  0  0  0
   -4.6042   14.8313  -13.9092 C   0  0  0  0  0  0  0  0  0  0  0  0
   -3.6374   15.2080  -12.9343 O   0  0  0  0  0  0  0  0  0  0  0  0
   -3.2854   14.1223  -12.1198 C   0  0  0  0  0  0  0  0  0  0  0  0
   -4.5109   13.8217  -11.2574 C   0  0  0  0  0  0  0  0  0  0  0  0
   -6.0481   12.2112   -9.8721 H   0  0  0  0  0  0  0  0  0  0  0  0
   -8.2018   10.0931  -13.8843 H   0  0  0  0  0  0  0  0  0  0  0  0
   -6.9404   12.2372  -14.0676 H   0  0  0  0  0  0  0  0  0  0  0  0
   -6.6716    9.1531   -9.6299 H   0  0  0  0  0  0  0  0  0  0  0  0
   -8.0292    9.5839   -7.2507 H   0  0  0  0  0  0  0  0  0  0  0  0
   -4.8756    8.7823   -8.4819 H   0  0  0  0  0  0  0  0  0  0  0  0
   -2.6674    9.7693   -8.0332 H   0  0  0  0  0  0  0  0  0  0  0  0
   -4.5421   13.2987   -6.4789 H   0  0  0  0  0  0  0  0  0  0  0  0
   -6.3960   12.4483   -7.8331 H   0  0  0  0  0  0  0  0  0  0  0  0
   -6.3899   11.7102   -6.1955 H   0  0  0  0  0  0  0  0  0  0  0  0
   -2.4737   14.2103   -6.1456 H   0  0  0  0  0  0  0  0  0  0  0  0
   -0.6522   10.6178   -7.5964 H   0  0  0  0  0  0  0  0  0  0  0  0
    1.4382   14.3462   -6.0082 H   0  0  0  0  0  0  0  0  0  0  0  0
    0.1696   15.4967   -6.5499 H   0  0  0  0  0  0  0  0  0  0  0  0
    0.1274   14.8336   -4.8810 H   0  0  0  0  0  0  0  0  0  0  0  0
   -6.6284   14.1271  -13.8790 H   0  0  0  0  0  0  0  0  0  0  0  0
   -6.2658   15.4268  -12.6932 H   0  0  0  0  0  0  0  0  0  0  0  0
   -4.2565   13.9474  -14.4640 H   0  0  0  0  0  0  0  0  0  0  0  0
   -4.7758   15.6607  -14.6111 H   0  0  0  0  0  0  0  0  0  0  0  0
   -3.0304   13.2488  -12.7378 H   0  0  0  0  0  0  0  0  0  0  0  0
   -2.4269   14.3849  -11.4842 H   0  0  0  0  0  0  0  0  0  0  0  0
   -4.7488   14.7031  -10.6438 H   0  0  0  0  0  0  0  0  0  0  0  0
   -4.2928   12.9662  -10.6013 H   0  0  0  0  0  0  0  0  0  0  0  0
  1  2  2  0  0  0  0
  1  4  1  0  0  0  0
  1 11  1  0  0  0  0
  2  6  1  0  0  0  0
  3  4  2  0  0  0  0
  3  5  1  0  0  0  0
  5  6  2  0  0  0  0
  5  9  1  0  0  0  0
  6  7  1  0  0  0  0
  7  8  1  0  0  0  0
  7 10  1  0  0  0  0
  8  9  2  0  0  0  0
 10 12  2  3  0  0  0
 11 24  1  0  0  0  0
 11 28  1  0  0  0  0
 12 13  1  0  0  0  0
 12 17  1  0  0  0  0
 13 14  2  0  0  0  0
 14 15  1  0  0  0  0
 15 16  2  0  0  0  0
 15 18  1  0  0  0  0
 16 17  1  0  0  0  0
 18 19  2  0  0  0  0
 18 22  1  0  0  0  0
 19 20  1  0  0  0  0
 20 21  1  0  0  0  0
 20 23  1  0  0  0  0
 21 22  2  0  0  0  0
 24 25  1  0  0  0  0
 25 26  1  0  0  0  0
 26 27  1  0  0  0  0
 27 28  1  0  0  0  0
  2 29  1  0  0  0  0
  3 30  1  0  0  0  0
  4 31  1  0  0  0  0
  7 32  1  0  0  0  0
 10 33  1  0  0  0  0
 13 34  1  0  0  0  0
 14 35  1  0  0  0  0
 16 36  1  0  0  0  0
 17 37  1  0  0  0  0
 17 38  1  0  0  0  0
 19 39  1  0  0  0  0
 22 40  1  0  0  0  0
 23 41  1  0  0  0  0
 23 42  1  0  0  0  0
 23 43  1  0  0  0  0
 24 44  1  0  0  0  0
 24 45  1  0  0  0  0
 25 46  1  0  0  0  0
 25 47  1  0  0  0  0
 27 48  1  0  0  0  0
 27 49  1  0  0  0  0
 28 50  1  0  0  0  0
 28 51  1  0  0  0  0
M  END
> <Name>
28

> <IC50[uM]>
30

$$$$
28
  -OEChem-05192314333D
 Structure written by MMmdl.
 51 55  0     0  0  0  0  0  0999 V2000
   -6.4084   12.3297  -11.9887 C   0  0  0  0  0  0  0  0  0  0  0  0
   -6.5165   11.7544  -10.7314 C   0  0  0  0  0  0  0  0  0  0  0  0
   -7.7418   10.5517  -13.0215 C   0  0  0  0  0  0  0  0  0  0  0  0
   -7.0245   11.7463  -13.1093 C   0  0  0  0  0  0  0  0  0  0  0  0
   -7.8268    9.9859  -11.7428 C   0  0  0  0  0  0  0  0  0  0  0  0
   -7.2396   10.5800  -10.6042 C   0  0  0  0  0  0  0  0  0  0  0  0
   -7.6095    9.7151   -9.5092 C   0  0  0  0  0  0  0  0  0  0  0  0
   -8.2849    8.7010   -9.9773 N   0  0  0  0  0  0  0  0  0  0  0  0
   -8.4373    8.8403  -11.2922 N   0  0  0  0  0  0  0  0  0  0  0  0
   -7.3311    9.8727   -8.0225 C   0  0  0  0  0  0  0  0  0  0  0  0
   -5.6734   13.4955  -12.1182 N   0  0  0  0  0  0  0  0  0  0  0  0
   -5.9616   10.4819   -7.7358 C   0  0  0  0  0  0  0  0  0  0  0  0
   -4.8034    9.7678   -8.0459 C   0  0  0  0  0  0  0  0  0  0  0  0
   -3.5615   10.3255   -7.7934 C   0  0  0  0  0  0  0  0  0  0  0  0
   -3.4526   11.6006   -7.2315 C   0  0  0  0  0  0  0  0  0  0  0  0
   -4.6161   12.3136   -6.9153 C   0  0  0  0  0  0  0  0  0  0  0  0
   -5.8662   11.7565   -7.1617 C   0  0  0  0  0  0  0  0  0  0  0  0
   -2.1079   12.1894   -6.9634 C   0  0  0  0  0  0  0  0  0  0  0  0
   -1.7834   13.4363   -6.4469 C   0  0  0  0  0  0  0  0  0  0  0  0
   -0.4443   13.4911   -6.3955 N   0  0  0  0  0  0  0  0  0  0  0  0
    0.1636   12.4174   -6.8067 N   0  0  0  0  0  0  0  0  0  0  0  0
   -0.8107   11.6018   -7.1804 C   0  0  0  0  0  0  0  0  0  0  0  0
    0.3735   14.6113   -5.9298 C   0  0  0  0  0  0  0  0  0  0  0  0
   -5.8857   14.5071  -13.1620 C   0  0  0  0  0  0  0  0  0  0  0  0
   -4.6042   14.8313  -13.9092 C   0  0  0  0  0  0  0  0  0  0  0  0
   -3.6374   15.2080  -12.9343 O   0  0  0  0  0  0  0  0  0  0  0  0
   -3.2854   14.1223  -12.1198 C   0  0  0  0  0  0  0  0  0  0  0  0
   -4.5109   13.8217  -11.2574 C   0  0  0  0  0  0  0  0  0  0  0  0
   -6.0481   12.2112   -9.8721 H   0  0  0  0  0  0  0  0  0  0  0  0
   -8.2018   10.0931  -13.8843 H   0  0  0  0  0  0  0  0  0  0  0  0
   -6.9404   12.2372  -14.0676 H   0  0  0  0  0  0  0  0  0  0  0  0
   -8.0292    9.5839   -7.2507 H   0  0  0  0  0  0  0  0  0  0  0  0
   -4.8756    8.7823   -8.4819 H   0  0  0  0  0  0  0  0  0  0  0  0
   -3.0403    9.6366   -7.1124 H   0  0  0  0  0  0  0  0  0  0  0  0
   -3.0311   10.3602   -8.7564 H   0  0  0  0  0  0  0  0  0  0  0  0
   -4.5421   13.2987   -6.4789 H   0  0  0  0  0  0  0  0  0  0  0  0
   -6.3960   12.4483   -7.8331 H   0  0  0  0  0  0  0  0  0  0  0  0
   -6.3899   11.7102   -6.1955 H   0  0  0  0  0  0  0  0  0  0  0  0
   -2.4737   14.2103   -6.1456 H   0  0  0  0  0  0  0  0  0  0  0  0
   -0.6522   10.6178   -7.5964 H   0  0  0  0  0  0  0  0  0  0  0  0
    1.4382   14.3462   -6.0082 H   0  0  0  0  0  0  0  0  0  0  0  0
    0.1696   15.4967   -6.5499 H   0  0  0  0  0  0  0  0  0  0  0  0
    0.1274   14.8336   -4.8810 H   0  0  0  0  0  0  0  0  0  0  0  0
   -6.6284   14.1271  -13.8790 H   0  0  0  0  0  0  0  0  0  0  0  0
   -6.2658   15.4268  -12.6932 H   0  0  0  0  0  0  0  0  0  0  0  0
   -4.2565   13.9474  -14.4640 H   0  0  0  0  0  0  0  0  0  0  0  0
   -4.7758   15.6607  -14.6111 H   0  0  0  0  0  0  0  0  0  0  0  0
   -3.0304   13.2488  -12.7378 H   0  0  0  0  0  0  0  0  0  0  0  0
   -2.4269   14.3849  -11.4842 H   0  0  0  0  0  0  0  0  0  0  0  0
   -4.7488   14.7031  -10.6438 H   0  0  0  0  0  0  0  0  0  0  0  0
   -4.2928   12.9662  -10.6013 H   0  0  0  0  0  0  0  0  0  0  0  0
  1  2  2  0  0  0  0
  1  4  1  0  0  0  0
  1 11  1  0  0  0  0
  2  6  1  0  0  0  0
  3  4  2  0  0  0  0
  3  5  1  0  0  0  0
  5  6  2  0  0  0  0
  5  9  1  0  0  0  0
  6  7  1  0  0  0  0
  7  8  1  0  0  0  0
  7 10  2  3  0  0  0
  8  9  2  0  0  0  0
 10 12  1  0  0  0  0
 11 24  1  0  0  0  0
 11 28  1  0  0  0  0
 12 13  2  0  0  0  0
 12 17  1  0  0  0  0
 13 14  1  0  0  0  0
 14 15  1  0  0  0  0
 15 16  2  0  0  0  0
 15 18  1  0  0  0  0
 16 17  1  0  0  0  0
 18 19  2  0  0  0  0
 18 22  1  0  0  0  0
 19 20  1  0  0  0  0
 20 21  1  0  0  0  0
 20 23  1  0  0  0  0
 21 22  2  0  0  0  0
 24 25  1  0  0  0  0
 25 26  1  0  0  0  0
 26 27  1  0  0  0  0
 27 28  1  0  0  0  0
  2 29  1  0  0  0  0
  3 30  1  0  0  0  0
  4 31  1  0  0  0  0
 10 32  1  0  0  0  0
 13 33  1  0  0  0  0
 14 34  1  0  0  0  0
 14 35  1  0  0  0  0
 16 36  1  0  0  0  0
 17 37  1  0  0  0  0
 17 38  1  0  0  0  0
 19 39  1  0  0  0  0
 22 40  1  0  0  0  0
 23 41  1  0  0  0  0
 23 42  1  0  0  0  0
 23 43  1  0  0  0  0
 24 44  1  0  0  0  0
 24 45  1  0  0  0  0
 25 46  1  0  0  0  0
 25 47  1  0  0  0  0
 27 48  1  0  0  0  0
 27 49  1  0  0  0  0
 28 50  1  0  0  0  0
 28 51  1  0  0  0  0
M  END
> <Name>
28

> <IC50[uM]>
30

$$$$
28
  -OEChem-05192314333D
 Structure written by MMmdl.
 51 55  0     0  0  0  0  0  0999 V2000
   -6.4084   12.3297  -11.9887 C   0  0  0  0  0  0  0  0  0  0  0  0
   -6.5165   11.7544  -10.7314 C   0  0  0  0  0  0  0  0  0  0  0  0
   -7.7418   10.5517  -13.0215 C   0  0  0  0  0  0  0  0  0  0  0  0
   -7.0245   11.7463  -13.1093 C   0  0  0  0  0  0  0  0  0  0  0  0
   -7.8268    9.9859  -11.7428 C   0  0  0  0  0  0  0  0  0  0  0  0
   -7.2396   10.5800  -10.6042 C   0  0  0  0  0  0  0  0  0  0  0  0
   -7.6095    9.7151   -9.5092 C   0  0  0  0  0  0  0  0  0  0  0  0
   -8.2849    8.7010   -9.9773 N   0  0  0  0  0  0  0  0  0  0  0  0
   -8.4373    8.8403  -11.2922 N   0  0  0  0  0  0  0  0  0  0  0  0
   -7.3311    9.8727   -8.0225 C   0  0  0  0  0  0  0  0  0  0  0  0
   -5.6734   13.4955  -12.1182 N   0  0  0  0  0  0  0  0  0  0  0  0
   -5.9616   10.4819   -7.7358 C   0  0  0  0  0  0  0  0  0  0  0  0
   -4.8034    9.7678   -8.0459 C   0  0  0  0  0  0  0  0  0  0  0  0
   -3.5615   10.3255   -7.7934 C   0  0  0  0  0  0  0  0  0  0  0  0
   -3.4526   11.6006   -7.2315 C   0  0  0  0  0  0  0  0  0  0  0  0
   -4.6161   12.3136   -6.9153 C   0  0  0  0  0  0  0  0  0  0  0  0
   -5.8662   11.7565   -7.1617 C   0  0  0  0  0  0  0  0  0  0  0  0
   -2.1079   12.1894   -6.9634 C   0  0  0  0  0  0  0  0  0  0  0  0
   -1.7834   13.4363   -6.4469 C   0  0  0  0  0  0  0  0  0  0  0  0
   -0.4443   13.4911   -6.3955 N   0  0  0  0  0  0  0  0  0  0  0  0
    0.1636   12.4174   -6.8067 N   0  0  0  0  0  0  0  0  0  0  0  0
   -0.8107   11.6018   -7.1804 C   0  0  0  0  0  0  0  0  0  0  0  0
    0.3735   14.6113   -5.9298 C   0  0  0  0  0  0  0  0  0  0  0  0
   -5.8857   14.5071  -13.1620 C   0  0  0  0  0  0  0  0  0  0  0  0
   -4.6042   14.8313  -13.9092 C   0  0  0  0  0  0  0  0  0  0  0  0
   -3.6374   15.2080  -12.9343 O   0  0  0  0  0  0  0  0  0  0  0  0
   -3.2854   14.1223  -12.1198 C   0  0  0  0  0  0  0  0  0  0  0  0
   -4.5109   13.8217  -11.2574 C   0  0  0  0  0  0  0  0  0  0  0  0
   -6.0481   12.2112   -9.8721 H   0  0  0  0  0  0  0  0  0  0  0  0
   -8.2018   10.0931  -13.8843 H   0  0  0  0  0  0  0  0  0  0  0  0
   -6.9404   12.2372  -14.0676 H   0  0  0  0  0  0  0  0  0  0  0  0
   -8.0292    9.5839   -7.2507 H   0  0  0  0  0  0  0  0  0  0  0  0
   -4.8756    8.7823   -8.4819 H   0  0  0  0  0  0  0  0  0  0  0  0
   -2.6674    9.7693   -8.0332 H   0  0  0  0  0  0  0  0  0  0  0  0
   -4.5723   12.5291   -5.8375 H   0  0  0  0  0  0  0  0  0  0  0  0
   -4.5728   13.2567   -7.4799 H   0  0  0  0  0  0  0  0  0  0  0  0
   -6.3960   12.4483   -7.8331 H   0  0  0  0  0  0  0  0  0  0  0  0
   -6.3899   11.7102   -6.1955 H   0  0  0  0  0  0  0  0  0  0  0  0
   -2.4737   14.2103   -6.1456 H   0  0  0  0  0  0  0  0  0  0  0  0
   -0.6522   10.6178   -7.5964 H   0  0  0  0  0  0  0  0  0  0  0  0
    1.4382   14.3462   -6.0082 H   0  0  0  0  0  0  0  0  0  0  0  0
    0.1696   15.4967   -6.5499 H   0  0  0  0  0  0  0  0  0  0  0  0
    0.1274   14.8336   -4.8810 H   0  0  0  0  0  0  0  0  0  0  0  0
   -6.6284   14.1271  -13.8790 H   0  0  0  0  0  0  0  0  0  0  0  0
   -6.2658   15.4268  -12.6932 H   0  0  0  0  0  0  0  0  0  0  0  0
   -4.2565   13.9474  -14.4640 H   0  0  0  0  0  0  0  0  0  0  0  0
   -4.7758   15.6607  -14.6111 H   0  0  0  0  0  0  0  0  0  0  0  0
   -3.0304   13.2488  -12.7378 H   0  0  0  0  0  0  0  0  0  0  0  0
   -2.4269   14.3849  -11.4842 H   0  0  0  0  0  0  0  0  0  0  0  0
   -4.7488   14.7031  -10.6438 H   0  0  0  0  0  0  0  0  0  0  0  0
   -4.2928   12.9662  -10.6013 H   0  0  0  0  0  0  0  0  0  0  0  0
  1  2  2  0  0  0  0
  1  4  1  0  0  0  0
  1 11  1  0  0  0  0
  2  6  1  0  0  0  0
  3  4  2  0  0  0  0
  3  5  1  0  0  0  0
  5  6  2  0  0  0  0
  5  9  1  0  0  0  0
  6  7  1  0  0  0  0
  7  8  1  0  0  0  0
  7 10  2  3  0  0  0
  8  9  2  0  0  0  0
 10 12  1  0  0  0  0
 11 24  1  0  0  0  0
 11 28  1  0  0  0  0
 12 13  2  0  0  0  0
 12 17  1  0  0  0  0
 13 14  1  0  0  0  0
 14 15  2  0  0  0  0
 15 16  1  0  0  0  0
 15 18  1  0  0  0  0
 16 17  1  0  0  0  0
 18 19  2  0  0  0  0
 18 22  1  0  0  0  0
 19 20  1  0  0  0  0
 20 21  1  0  0  0  0
 20 23  1  0  0  0  0
 21 22  2  0  0  0  0
 24 25  1  0  0  0  0
 25 26  1  0  0  0  0
 26 27  1  0  0  0  0
 27 28  1  0  0  0  0
  2 29  1  0  0  0  0
  3 30  1  0  0  0  0
  4 31  1  0  0  0  0
 10 32  1  0  0  0  0
 13 33  1  0  0  0  0
 14 34  1  0  0  0  0
 16 35  1  0  0  0  0
 16 36  1  0  0  0  0
 17 37  1  0  0  0  0
 17 38  1  0  0  0  0
 19 39  1  0  0  0  0
 22 40  1  0  0  0  0
 23 41  1  0  0  0  0
 23 42  1  0  0  0  0
 23 43  1  0  0  0  0
 24 44  1  0  0  0  0
 24 45  1  0  0  0  0
 25 46  1  0  0  0  0
 25 47  1  0  0  0  0
 27 48  1  0  0  0  0
 27 49  1  0  0  0  0
 28 50  1  0  0  0  0
 28 51  1  0  0  0  0
M  END
> <Name>
28

> <IC50[uM]>
30

$$$$
28
  -OEChem-05192314333D
 Structure written by MMmdl.
 51 55  0     1  0  0  0  0  0999 V2000
   -6.4084   12.3297  -11.9887 C   0  0  0  0  0  0  0  0  0  0  0  0
   -6.5165   11.7544  -10.7314 C   0  0  0  0  0  0  0  0  0  0  0  0
   -7.7418   10.5517  -13.0215 C   0  0  0  0  0  0  0  0  0  0  0  0
   -7.0245   11.7463  -13.1093 C   0  0  0  0  0  0  0  0  0  0  0  0
   -7.8268    9.9859  -11.7428 C   0  0  0  0  0  0  0  0  0  0  0  0
   -7.2396   10.5800  -10.6042 C   0  0  3  0  0  0  0  0  0  0  0  0
   -7.6095    9.7151   -9.5092 C   0  0  0  0  0  0  0  0  0  0  0  0
   -8.2849    8.7010   -9.9773 N   0  0  0  0  0  0  0  0  0  0  0  0
   -8.4373    8.8403  -11.2922 N   0  0  0  0  0  0  0  0  0  0  0  0
   -7.3311    9.8727   -8.0225 C   0  0  0  0  0  0  0  0  0  0  0  0
   -5.6734   13.4955  -12.1182 N   0  0  0  0  0  0  0  0  0  0  0  0
   -5.9616   10.4819   -7.7358 C   0  0  0  0  0  0  0  0  0  0  0  0
   -4.8034    9.7678   -8.0459 C   0  0  0  0  0  0  0  0  0  0  0  0
   -3.5615   10.3255   -7.7934 C   0  0  0  0  0  0  0  0  0  0  0  0
   -3.4526   11.6006   -7.2315 C   0  0  0  0  0  0  0  0  0  0  0  0
   -4.6161   12.3136   -6.9153 C   0  0  0  0  0  0  0  0  0  0  0  0
   -5.8662   11.7565   -7.1617 C   0  0  0  0  0  0  0  0  0  0  0  0
   -2.1079   12.1894   -6.9634 C   0  0  0  0  0  0  0  0  0  0  0  0
   -1.7834   13.4363   -6.4469 C   0  0  0  0  0  0  0  0  0  0  0  0
   -0.4443   13.4911   -6.3955 N   0  0  0  0  0  0  0  0  0  0  0  0
    0.1636   12.4174   -6.8067 N   0  0  0  0  0  0  0  0  0  0  0  0
   -0.8107   11.6018   -7.1804 C   0  0  0  0  0  0  0  0  0  0  0  0
    0.3735   14.6113   -5.9298 C   0  0  0  0  0  0  0  0  0  0  0  0
   -5.8857   14.5071  -13.1620 C   0  0  0  0  0  0  0  0  0  0  0  0
   -4.6042   14.8313  -13.9092 C   0  0  0  0  0  0  0  0  0  0  0  0
   -3.6374   15.2080  -12.9343 O   0  0  0  0  0  0  0  0  0  0  0  0
   -3.2854   14.1223  -12.1198 C   0  0  0  0  0  0  0  0  0  0  0  0
   -4.5109   13.8217  -11.2574 C   0  0  0  0  0  0  0  0  0  0  0  0
   -5.4950   11.5470  -10.3798 H   0  0  0  0  0  0  0  0  0  0  0  0
   -6.9870   12.4990  -10.0725 H   0  0  0  0  0  0  0  0  0  0  0  0
   -8.2018   10.0931  -13.8843 H   0  0  0  0  0  0  0  0  0  0  0  0
   -6.9404   12.2372  -14.0676 H   0  0  0  0  0  0  0  0  0  0  0  0
   -6.3233    9.9928  -10.7645 H   0  0  0  0  0  0  0  0  0  0  0  0
   -8.0292    9.5839   -7.2507 H   0  0  0  0  0  0  0  0  0  0  0  0
   -4.8756    8.7823   -8.4819 H   0  0  0  0  0  0  0  0  0  0  0  0
   -2.6674    9.7693   -8.0332 H   0  0  0  0  0  0  0  0  0  0  0  0
   -4.5421   13.2987   -6.4789 H   0  0  0  0  0  0  0  0  0  0  0  0
   -6.7619   12.3053   -6.9110 H   0  0  0  0  0  0  0  0  0  0  0  0
   -2.4737   14.2103   -6.1456 H   0  0  0  0  0  0  0  0  0  0  0  0
   -0.6522   10.6178   -7.5964 H   0  0  0  0  0  0  0  0  0  0  0  0
    1.4382   14.3462   -6.0082 H   0  0  0  0  0  0  0  0  0  0  0  0
    0.1696   15.4967   -6.5499 H   0  0  0  0  0  0  0  0  0  0  0  0
    0.1274   14.8336   -4.8810 H   0  0  0  0  0  0  0  0  0  0  0  0
   -6.6284   14.1271  -13.8790 H   0  0  0  0  0  0  0  0  0  0  0  0
   -6.2658   15.4268  -12.6932 H   0  0  0  0  0  0  0  0  0  0  0  0
   -4.2565   13.9474  -14.4640 H   0  0  0  0  0  0  0  0  0  0  0  0
   -4.7758   15.6607  -14.6111 H   0  0  0  0  0  0  0  0  0  0  0  0
   -3.0304   13.2488  -12.7378 H   0  0  0  0  0  0  0  0  0  0  0  0
   -2.4269   14.3849  -11.4842 H   0  0  0  0  0  0  0  0  0  0  0  0
   -4.7488   14.7031  -10.6438 H   0  0  0  0  0  0  0  0  0  0  0  0
   -4.2928   12.9662  -10.6013 H   0  0  0  0  0  0  0  0  0  0  0  0
  1  2  1  0  0  0  0
  1  4  2  0  0  0  0
  1 11  1  0  0  0  0
  2  6  1  0  0  0  0
  3  4  1  0  0  0  0
  3  5  2  0  0  0  0
  5  6  1  0  0  0  0
  5  9  1  0  0  0  0
  6  7  1  0  0  0  0
  7  8  1  0  0  0  0
  7 10  2  3  0  0  0
  8  9  2  0  0  0  0
 10 12  1  0  0  0  0
 11 24  1  0  0  0  0
 11 28  1  0  0  0  0
 12 13  2  0  0  0  0
 12 17  1  0  0  0  0
 13 14  1  0  0  0  0
 14 15  2  0  0  0  0
 15 16  1  0  0  0  0
 15 18  1  0  0  0  0
 16 17  2  0  0  0  0
 18 19  2  0  0  0  0
 18 22  1  0  0  0  0
 19 20  1  0  0  0  0
 20 21  1  0  0  0  0
 20 23  1  0  0  0  0
 21 22  2  0  0  0  0
 24 25  1  0  0  0  0
 25 26  1  0  0  0  0
 26 27  1  0  0  0  0
 27 28  1  0  0  0  0
  2 29  1  0  0  0  0
  2 30  1  0  0  0  0
  3 31  1  0  0  0  0
  4 32  1  0  0  0  0
  6 33  1  0  0  0  0
 10 34  1  0  0  0  0
 13 35  1  0  0  0  0
 14 36  1  0  0  0  0
 16 37  1  0  0  0  0
 17 38  1  0  0  0  0
 19 39  1  0  0  0  0
 22 40  1  0  0  0  0
 23 41  1  0  0  0  0
 23 42  1  0  0  0  0
 23 43  1  0  0  0  0
 24 44  1  0  0  0  0
 24 45  1  0  0  0  0
 25 46  1  0  0  0  0
 25 47  1  0  0  0  0
 27 48  1  0  0  0  0
 27 49  1  0  0  0  0
 28 50  1  0  0  0  0
 28 51  1  0  0  0  0
M  END
> <Name>
28

> <IC50[uM]>
30

$$$$
28
  -OEChem-05192314333D
 Structure written by MMmdl.
 51 55  0     1  0  0  0  0  0999 V2000
   -6.4084   12.3297  -11.9887 C   0  0  3  0  0  0  0  0  0  0  0  0
   -6.5165   11.7544  -10.7314 C   0  0  0  0  0  0  0  0  0  0  0  0
   -7.7418   10.5517  -13.0215 C   0  0  0  0  0  0  0  0  0  0  0  0
   -7.0245   11.7463  -13.1093 C   0  0  0  0  0  0  0  0  0  0  0  0
   -7.8268    9.9859  -11.7428 C   0  0  0  0  0  0  0  0  0  0  0  0
   -7.2396   10.5800  -10.6042 C   0  0  0  0  0  0  0  0  0  0  0  0
   -7.6095    9.7151   -9.5092 C   0  0  0  0  0  0  0  0  0  0  0  0
   -8.2849    8.7010   -9.9773 N   0  0  0  0  0  0  0  0  0  0  0  0
   -8.4373    8.8403  -11.2922 N   0  0  0  0  0  0  0  0  0  0  0  0
   -7.3311    9.8727   -8.0225 C   0  0  0  0  0  0  0  0  0  0  0  0
   -5.6734   13.4955  -12.1182 N   0  0  0  0  0  0  0  0  0  0  0  0
   -5.9616   10.4819   -7.7358 C   0  0  0  0  0  0  0  0  0  0  0  0
   -4.8034    9.7678   -8.0459 C   0  0  0  0  0  0  0  0  0  0  0  0
   -3.5615   10.3255   -7.7934 C   0  0  0  0  0  0  0  0  0  0  0  0
   -3.4526   11.6006   -7.2315 C   0  0  0  0  0  0  0  0  0  0  0  0
   -4.6161   12.3136   -6.9153 C   0  0  0  0  0  0  0  0  0  0  0  0
   -5.8662   11.7565   -7.1617 C   0  0  0  0  0  0  0  0  0  0  0  0
   -2.1079   12.1894   -6.9634 C   0  0  0  0  0  0  0  0  0  0  0  0
   -1.7834   13.4363   -6.4469 C   0  0  0  0  0  0  0  0  0  0  0  0
   -0.4443   13.4911   -6.3955 N   0  0  0  0  0  0  0  0  0  0  0  0
    0.1636   12.4174   -6.8067 N   0  0  0  0  0  0  0  0  0  0  0  0
   -0.8107   11.6018   -7.1804 C   0  0  0  0  0  0  0  0  0  0  0  0
    0.3735   14.6113   -5.9298 C   0  0  0  0  0  0  0  0  0  0  0  0
   -5.8857   14.5071  -13.1620 C   0  0  0  0  0  0  0  0  0  0  0  0
   -4.6042   14.8313  -13.9092 C   0  0  0  0  0  0  0  0  0  0  0  0
   -3.6374   15.2080  -12.9343 O   0  0  0  0  0  0  0  0  0  0  0  0
   -3.2854   14.1223  -12.1198 C   0  0  0  0  0  0  0  0  0  0  0  0
   -4.5109   13.8217  -11.2574 C   0  0  0  0  0  0  0  0  0  0  0  0
   -7.3155   12.9217  -11.7969 H   0  0  0  0  0  0  0  0  0  0  0  0
   -5.4950   11.5470  -10.3798 H   0  0  0  0  0  0  0  0  0  0  0  0
   -6.9870   12.4990  -10.0725 H   0  0  0  0  0  0  0  0  0  0  0  0
   -8.2018   10.0931  -13.8843 H   0  0  0  0  0  0  0  0  0  0  0  0
   -6.9404   12.2372  -14.0676 H   0  0  0  0  0  0  0  0  0  0  0  0
   -8.0292    9.5839   -7.2507 H   0  0  0  0  0  0  0  0  0  0  0  0
   -4.8756    8.7823   -8.4819 H   0  0  0  0  0  0  0  0  0  0  0  0
   -2.6674    9.7693   -8.0332 H   0  0  0  0  0  0  0  0  0  0  0  0
   -4.5421   13.2987   -6.4789 H   0  0  0  0  0  0  0  0  0  0  0  0
   -6.7619   12.3053   -6.9110 H   0  0  0  0  0  0  0  0  0  0  0  0
   -2.4737   14.2103   -6.1456 H   0  0  0  0  0  0  0  0  0  0  0  0
   -0.6522   10.6178   -7.5964 H   0  0  0  0  0  0  0  0  0  0  0  0
    1.4382   14.3462   -6.0082 H   0  0  0  0  0  0  0  0  0  0  0  0
    0.1696   15.4967   -6.5499 H   0  0  0  0  0  0  0  0  0  0  0  0
    0.1274   14.8336   -4.8810 H   0  0  0  0  0  0  0  0  0  0  0  0
   -6.6284   14.1271  -13.8790 H   0  0  0  0  0  0  0  0  0  0  0  0
   -6.2658   15.4268  -12.6932 H   0  0  0  0  0  0  0  0  0  0  0  0
   -4.2565   13.9474  -14.4640 H   0  0  0  0  0  0  0  0  0  0  0  0
   -4.7758   15.6607  -14.6111 H   0  0  0  0  0  0  0  0  0  0  0  0
   -3.0304   13.2488  -12.7378 H   0  0  0  0  0  0  0  0  0  0  0  0
   -2.4269   14.3849  -11.4842 H   0  0  0  0  0  0  0  0  0  0  0  0
   -4.7488   14.7031  -10.6438 H   0  0  0  0  0  0  0  0  0  0  0  0
   -4.2928   12.9662  -10.6013 H   0  0  0  0  0  0  0  0  0  0  0  0
  1  2  1  0  0  0  0
  1  4  1  0  0  0  0
  1 11  1  0  0  0  0
  2  6  1  0  0  0  0
  3  4  2  0  0  0  0
  3  5  1  0  0  0  0
  5  6  2  0  0  0  0
  5  9  1  0  0  0  0
  6  7  1  0  0  0  0
  7  8  1  0  0  0  0
  7 10  2  3  0  0  0
  8  9  2  0  0  0  0
 10 12  1  0  0  0  0
 11 24  1  0  0  0  0
 11 28  1  0  0  0  0
 12 13  2  0  0  0  0
 12 17  1  0  0  0  0
 13 14  1  0  0  0  0
 14 15  2  0  0  0  0
 15 16  1  0  0  0  0
 15 18  1  0  0  0  0
 16 17  2  0  0  0  0
 18 19  2  0  0  0  0
 18 22  1  0  0  0  0
 19 20  1  0  0  0  0
 20 21  1  0  0  0  0
 20 23  1  0  0  0  0
 21 22  2  0  0  0  0
 24 25  1  0  0  0  0
 25 26  1  0  0  0  0
 26 27  1  0  0  0  0
 27 28  1  0  0  0  0
  1 29  1  0  0  0  0
  2 30  1  0  0  0  0
  2 31  1  0  0  0  0
  3 32  1  0  0  0  0
  4 33  1  0  0  0  0
 10 34  1  0  0  0  0
 13 35  1  0  0  0  0
 14 36  1  0  0  0  0
 16 37  1  0  0  0  0
 17 38  1  0  0  0  0
 19 39  1  0  0  0  0
 22 40  1  0  0  0  0
 23 41  1  0  0  0  0
 23 42  1  0  0  0  0
 23 43  1  0  0  0  0
 24 44  1  0  0  0  0
 24 45  1  0  0  0  0
 25 46  1  0  0  0  0
 25 47  1  0  0  0  0
 27 48  1  0  0  0  0
 27 49  1  0  0  0  0
 28 50  1  0  0  0  0
 28 51  1  0  0  0  0
M  END
> <Name>
28

> <IC50[uM]>
30

$$$$
28
  -OEChem-05192314333D
 Structure written by MMmdl.
 51 55  0     0  0  0  0  0  0999 V2000
   -6.4084   12.3297  -11.9887 C   0  0  0  0  0  0  0  0  0  0  0  0
   -6.5165   11.7544  -10.7314 C   0  0  0  0  0  0  0  0  0  0  0  0
   -7.7418   10.5517  -13.0215 C   0  0  0  0  0  0  0  0  0  0  0  0
   -7.0245   11.7463  -13.1093 C   0  0  0  0  0  0  0  0  0  0  0  0
   -7.8268    9.9859  -11.7428 C   0  0  0  0  0  0  0  0  0  0  0  0
   -7.2396   10.5800  -10.6042 C   0  0  0  0  0  0  0  0  0  0  0  0
   -7.6095    9.7151   -9.5092 C   0  0  0  0  0  0  0  0  0  0  0  0
   -8.2849    8.7010   -9.9773 N   0  0  0  0  0  0  0  0  0  0  0  0
   -8.4373    8.8403  -11.2922 N   0  0  0  0  0  0  0  0  0  0  0  0
   -7.3311    9.8727   -8.0225 C   0  0  0  0  0  0  0  0  0  0  0  0
   -5.6734   13.4955  -12.1182 N   0  0  0  0  0  0  0  0  0  0  0  0
   -5.9616   10.4819   -7.7358 C   0  0  0  0  0  0  0  0  0  0  0  0
   -4.8034    9.7678   -8.0459 C   0  0  0  0  0  0  0  0  0  0  0  0
   -3.5615   10.3255   -7.7934 C   0  0  0  0  0  0  0  0  0  0  0  0
   -3.4526   11.6006   -7.2315 C   0  0  0  0  0  0  0  0  0  0  0  0
   -4.6161   12.3136   -6.9153 C   0  0  0  0  0  0  0  0  0  0  0  0
   -5.8662   11.7565   -7.1617 C   0  0  0  0  0  0  0  0  0  0  0  0
   -2.1079   12.1894   -6.9634 C   0  0  0  0  0  0  0  0  0  0  0  0
   -1.7834   13.4363   -6.4469 C   0  0  0  0  0  0  0  0  0  0  0  0
   -0.4443   13.4911   -6.3955 N   0  0  0  0  0  0  0  0  0  0  0  0
    0.1636   12.4174   -6.8067 N   0  0  0  0  0  0  0  0  0  0  0  0
   -0.8107   11.6018   -7.1804 C   0  0  0  0  0  0  0  0  0  0  0  0
    0.3735   14.6113   -5.9298 C   0  0  0  0  0  0  0  0  0  0  0  0
   -5.8857   14.5071  -13.1620 C   0  0  0  0  0  0  0  0  0  0  0  0
   -4.6042   14.8313  -13.9092 C   0  0  0  0  0  0  0  0  0  0  0  0
   -3.6374   15.2080  -12.9343 O   0  0  0  0  0  0  0  0  0  0  0  0
   -3.2854   14.1223  -12.1198 C   0  0  0  0  0  0  0  0  0  0  0  0
   -4.5109   13.8217  -11.2574 C   0  0  0  0  0  0  0  0  0  0  0  0
   -5.4950   11.5470  -10.3798 H   0  0  0  0  0  0  0  0  0  0  0  0
   -6.9870   12.4990  -10.0725 H   0  0  0  0  0  0  0  0  0  0  0  0
   -8.7656   10.7458  -13.3738 H   0  0  0  0  0  0  0  0  0  0  0  0
   -7.2589    9.8183  -13.6840 H   0  0  0  0  0  0  0  0  0  0  0  0
   -6.9404   12.2372  -14.0676 H   0  0  0  0  0  0  0  0  0  0  0  0
   -8.0292    9.5839   -7.2507 H   0  0  0  0  0  0  0  0  0  0  0  0
   -4.8756    8.7823   -8.4819 H   0  0  0  0  0  0  0  0  0  0  0  0
   -2.6674    9.7693   -8.0332 H   0  0  0  0  0  0  0  0  0  0  0  0
   -4.5421   13.2987   -6.4789 H   0  0  0  0  0  0  0  0  0  0  0  0
   -6.7619   12.3053   -6.9110 H   0  0  0  0  0  0  0  0  0  0  0  0
   -2.4737   14.2103   -6.1456 H   0  0  0  0  0  0  0  0  0  0  0  0
   -0.6522   10.6178   -7.5964 H   0  0  0  0  0  0  0  0  0  0  0  0
    1.4382   14.3462   -6.0082 H   0  0  0  0  0  0  0  0  0  0  0  0
    0.1696   15.4967   -6.5499 H   0  0  0  0  0  0  0  0  0  0  0  0
    0.1274   14.8336   -4.8810 H   0  0  0  0  0  0  0  0  0  0  0  0
   -6.6284   14.1271  -13.8790 H   0  0  0  0  0  0  0  0  0  0  0  0
   -6.2658   15.4268  -12.6932 H   0  0  0  0  0  0  0  0  0  0  0  0
   -4.2565   13.9474  -14.4640 H   0  0  0  0  0  0  0  0  0  0  0  0
   -4.7758   15.6607  -14.6111 H   0  0  0  0  0  0  0  0  0  0  0  0
   -3.0304   13.2488  -12.7378 H   0  0  0  0  0  0  0  0  0  0  0  0
   -2.4269   14.3849  -11.4842 H   0  0  0  0  0  0  0  0  0  0  0  0
   -4.7488   14.7031  -10.6438 H   0  0  0  0  0  0  0  0  0  0  0  0
   -4.2928   12.9662  -10.6013 H   0  0  0  0  0  0  0  0  0  0  0  0
  1  2  1  0  0  0  0
  1  4  2  0  0  0  0
  1 11  1  0  0  0  0
  2  6  1  0  0  0  0
  3  4  1  0  0  0  0
  3  5  1  0  0  0  0
  5  6  2  0  0  0  0
  5  9  1  0  0  0  0
  6  7  1  0  0  0  0
  7  8  1  0  0  0  0
  7 10  2  3  0  0  0
  8  9  2  0  0  0  0
 10 12  1  0  0  0  0
 11 24  1  0  0  0  0
 11 28  1  0  0  0  0
 12 13  2  0  0  0  0
 12 17  1  0  0  0  0
 13 14  1  0  0  0  0
 14 15  2  0  0  0  0
 15 16  1  0  0  0  0
 15 18  1  0  0  0  0
 16 17  2  0  0  0  0
 18 19  2  0  0  0  0
 18 22  1  0  0  0  0
 19 20  1  0  0  0  0
 20 21  1  0  0  0  0
 20 23  1  0  0  0  0
 21 22  2  0  0  0  0
 24 25  1  0  0  0  0
 25 26  1  0  0  0  0
 26 27  1  0  0  0  0
 27 28  1  0  0  0  0
  2 29  1  0  0  0  0
  2 30  1  0  0  0  0
  3 31  1  0  0  0  0
  3 32  1  0  0  0  0
  4 33  1  0  0  0  0
 10 34  1  0  0  0  0
 13 35  1  0  0  0  0
 14 36  1  0  0  0  0
 16 37  1  0  0  0  0
 17 38  1  0  0  0  0
 19 39  1  0  0  0  0
 22 40  1  0  0  0  0
 23 41  1  0  0  0  0
 23 42  1  0  0  0  0
 23 43  1  0  0  0  0
 24 44  1  0  0  0  0
 24 45  1  0  0  0  0
 25 46  1  0  0  0  0
 25 47  1  0  0  0  0
 27 48  1  0  0  0  0
 27 49  1  0  0  0  0
 28 50  1  0  0  0  0
 28 51  1  0  0  0  0
M  END
> <Name>
28

> <IC50[uM]>
30

$$$$
28
  -OEChem-05192314333D
 Structure written by MMmdl.
 51 55  0     1  0  0  0  0  0999 V2000
   -6.4084   12.3297  -11.9887 C   0  0  0  0  0  0  0  0  0  0  0  0
   -6.5165   11.7544  -10.7314 C   0  0  0  0  0  0  0  0  0  0  0  0
   -7.7418   10.5517  -13.0215 C   0  0  0  0  0  0  0  0  0  0  0  0
   -7.0245   11.7463  -13.1093 C   0  0  0  0  0  0  0  0  0  0  0  0
   -7.8268    9.9859  -11.7428 C   0  0  3  0  0  0  0  0  0  0  0  0
   -7.2396   10.5800  -10.6042 C   0  0  0  0  0  0  0  0  0  0  0  0
   -7.6095    9.7151   -9.5092 C   0  0  0  0  0  0  0  0  0  0  0  0
   -8.2849    8.7010   -9.9773 N   0  0  0  0  0  0  0  0  0  0  0  0
   -8.4373    8.8403  -11.2922 N   0  0  0  0  0  0  0  0  0  0  0  0
   -7.3311    9.8727   -8.0225 C   0  0  0  0  0  0  0  0  0  0  0  0
   -5.6734   13.4955  -12.1182 N   0  0  0  0  0  0  0  0  0  0  0  0
   -5.9616   10.4819   -7.7358 C   0  0  0  0  0  0  0  0  0  0  0  0
   -4.8034    9.7678   -8.0459 C   0  0  0  0  0  0  0  0  0  0  0  0
   -3.5615   10.3255   -7.7934 C   0  0  0  0  0  0  0  0  0  0  0  0
   -3.4526   11.6006   -7.2315 C   0  0  0  0  0  0  0  0  0  0  0  0
   -4.6161   12.3136   -6.9153 C   0  0  0  0  0  0  0  0  0  0  0  0
   -5.8662   11.7565   -7.1617 C   0  0  0  0  0  0  0  0  0  0  0  0
   -2.1079   12.1894   -6.9634 C   0  0  0  0  0  0  0  0  0  0  0  0
   -1.7834   13.4363   -6.4469 C   0  0  0  0  0  0  0  0  0  0  0  0
   -0.4443   13.4911   -6.3955 N   0  0  0  0  0  0  0  0  0  0  0  0
    0.1636   12.4174   -6.8067 N   0  0  0  0  0  0  0  0  0  0  0  0
   -0.8107   11.6018   -7.1804 C   0  0  0  0  0  0  0  0  0  0  0  0
    0.3735   14.6113   -5.9298 C   0  0  0  0  0  0  0  0  0  0  0  0
   -5.8857   14.5071  -13.1620 C   0  0  0  0  0  0  0  0  0  0  0  0
   -4.6042   14.8313  -13.9092 C   0  0  0  0  0  0  0  0  0  0  0  0
   -3.6374   15.2080  -12.9343 O   0  0  0  0  0  0  0  0  0  0  0  0
   -3.2854   14.1223  -12.1198 C   0  0  0  0  0  0  0  0  0  0  0  0
   -4.5109   13.8217  -11.2574 C   0  0  0  0  0  0  0  0  0  0  0  0
   -6.0481   12.2112   -9.8721 H   0  0  0  0  0  0  0  0  0  0  0  0
   -8.2018   10.0931  -13.8843 H   0  0  0  0  0  0  0  0  0  0  0  0
   -6.9404   12.2372  -14.0676 H   0  0  0  0  0  0  0  0  0  0  0  0
   -6.9008    9.4219  -11.9286 H   0  0  0  0  0  0  0  0  0  0  0  0
   -8.1032   10.5248   -7.5881 H   0  0  0  0  0  0  0  0  0  0  0  0
   -7.3800    8.8809   -7.5492 H   0  0  0  0  0  0  0  0  0  0  0  0
   -4.8756    8.7823   -8.4819 H   0  0  0  0  0  0  0  0  0  0  0  0
   -2.6674    9.7693   -8.0332 H   0  0  0  0  0  0  0  0  0  0  0  0
   -4.5421   13.2987   -6.4789 H   0  0  0  0  0  0  0  0  0  0  0  0
   -6.7619   12.3053   -6.9110 H   0  0  0  0  0  0  0  0  0  0  0  0
   -2.4737   14.2103   -6.1456 H   0  0  0  0  0  0  0  0  0  0  0  0
   -0.6522   10.6178   -7.5964 H   0  0  0  0  0  0  0  0  0  0  0  0
    1.4382   14.3462   -6.0082 H   0  0  0  0  0  0  0  0  0  0  0  0
    0.1696   15.4967   -6.5499 H   0  0  0  0  0  0  0  0  0  0  0  0
    0.1274   14.8336   -4.8810 H   0  0  0  0  0  0  0  0  0  0  0  0
   -6.6284   14.1271  -13.8790 H   0  0  0  0  0  0  0  0  0  0  0  0
   -6.2658   15.4268  -12.6932 H   0  0  0  0  0  0  0  0  0  0  0  0
   -4.2565   13.9474  -14.4640 H   0  0  0  0  0  0  0  0  0  0  0  0
   -4.7758   15.6607  -14.6111 H   0  0  0  0  0  0  0  0  0  0  0  0
   -3.0304   13.2488  -12.7378 H   0  0  0  0  0  0  0  0  0  0  0  0
   -2.4269   14.3849  -11.4842 H   0  0  0  0  0  0  0  0  0  0  0  0
   -4.7488   14.7031  -10.6438 H   0  0  0  0  0  0  0  0  0  0  0  0
   -4.2928   12.9662  -10.6013 H   0  0  0  0  0  0  0  0  0  0  0  0
  1  2  2  0  0  0  0
  1  4  1  0  0  0  0
  1 11  1  0  0  0  0
  2  6  1  0  0  0  0
  3  4  2  0  0  0  0
  3  5  1  0  0  0  0
  5  6  1  0  0  0  0
  5  9  1  0  0  0  0
  6  7  2  0  0  0  0
  7  8  1  0  0  0  0
  7 10  1  0  0  0  0
  8  9  2  0  0  0  0
 10 12  1  0  0  0  0
 11 24  1  0  0  0  0
 11 28  1  0  0  0  0
 12 13  2  0  0  0  0
 12 17  1  0  0  0  0
 13 14  1  0  0  0  0
 14 15  2  0  0  0  0
 15 16  1  0  0  0  0
 15 18  1  0  0  0  0
 16 17  2  0  0  0  0
 18 19  2  0  0  0  0
 18 22  1  0  0  0  0
 19 20  1  0  0  0  0
 20 21  1  0  0  0  0
 20 23  1  0  0  0  0
 21 22  2  0  0  0  0
 24 25  1  0  0  0  0
 25 26  1  0  0  0  0
 26 27  1  0  0  0  0
 27 28  1  0  0  0  0
  2 29  1  0  0  0  0
  3 30  1  0  0  0  0
  4 31  1  0  0  0  0
  5 32  1  0  0  0  0
 10 33  1  0  0  0  0
 10 34  1  0  0  0  0
 13 35  1  0  0  0  0
 14 36  1  0  0  0  0
 16 37  1  0  0  0  0
 17 38  1  0  0  0  0
 19 39  1  0  0  0  0
 22 40  1  0  0  0  0
 23 41  1  0  0  0  0
 23 42  1  0  0  0  0
 23 43  1  0  0  0  0
 24 44  1  0  0  0  0
 24 45  1  0  0  0  0
 25 46  1  0  0  0  0
 25 47  1  0  0  0  0
 27 48  1  0  0  0  0
 27 49  1  0  0  0  0
 28 50  1  0  0  0  0
 28 51  1  0  0  0  0
M  END
> <Name>
28

> <IC50[uM]>
30

$$$$
28
  -OEChem-05192314333D
 Structure written by MMmdl.
 51 55  0     0  0  0  0  0  0999 V2000
   -6.4084   12.3297  -11.9887 C   0  0  0  0  0  0  0  0  0  0  0  0
   -6.5165   11.7544  -10.7314 C   0  0  0  0  0  0  0  0  0  0  0  0
   -7.7418   10.5517  -13.0215 C   0  0  0  0  0  0  0  0  0  0  0  0
   -7.0245   11.7463  -13.1093 C   0  0  0  0  0  0  0  0  0  0  0  0
   -7.8268    9.9859  -11.7428 C   0  0  0  0  0  0  0  0  0  0  0  0
   -7.2396   10.5800  -10.6042 C   0  0  0  0  0  0  0  0  0  0  0  0
   -7.6095    9.7151   -9.5092 C   0  0  0  0  0  0  0  0  0  0  0  0
   -8.2849    8.7010   -9.9773 N   0  0  0  0  0  0  0  0  0  0  0  0
   -8.4373    8.8403  -11.2922 N   0  0  0  0  0  0  0  0  0  0  0  0
   -7.3311    9.8727   -8.0225 C   0  0  0  0  0  0  0  0  0  0  0  0
   -5.6734   13.4955  -12.1182 N   0  0  0  0  0  0  0  0  0  0  0  0
   -5.9616   10.4819   -7.7358 C   0  0  0  0  0  0  0  0  0  0  0  0
   -4.8034    9.7678   -8.0459 C   0  0  0  0  0  0  0  0  0  0  0  0
   -3.5615   10.3255   -7.7934 C   0  0  0  0  0  0  0  0  0  0  0  0
   -3.4526   11.6006   -7.2315 C   0  0  0  0  0  0  0  0  0  0  0  0
   -4.6161   12.3136   -6.9153 C   0  0  0  0  0  0  0  0  0  0  0  0
   -5.8662   11.7565   -7.1617 C   0  0  0  0  0  0  0  0  0  0  0  0
   -2.1079   12.1894   -6.9634 C   0  0  0  0  0  0  0  0  0  0  0  0
   -1.7834   13.4363   -6.4469 C   0  0  0  0  0  0  0  0  0  0  0  0
   -0.4443   13.4911   -6.3955 N   0  0  0  0  0  0  0  0  0  0  0  0
    0.1636   12.4174   -6.8067 N   0  0  0  0  0  0  0  0  0  0  0  0
   -0.8107   11.6018   -7.1804 C   0  0  0  0  0  0  0  0  0  0  0  0
    0.3735   14.6113   -5.9298 C   0  0  0  0  0  0  0  0  0  0  0  0
   -5.8857   14.5071  -13.1620 C   0  0  0  0  0  0  0  0  0  0  0  0
   -4.6042   14.8313  -13.9092 C   0  0  0  0  0  0  0  0  0  0  0  0
   -3.6374   15.2080  -12.9343 O   0  0  0  0  0  0  0  0  0  0  0  0
   -3.2854   14.1223  -12.1198 C   0  0  0  0  0  0  0  0  0  0  0  0
   -4.5109   13.8217  -11.2574 C   0  0  0  0  0  0  0  0  0  0  0  0
   -6.0481   12.2112   -9.8721 H   0  0  0  0  0  0  0  0  0  0  0  0
   -8.2018   10.0931  -13.8843 H   0  0  0  0  0  0  0  0  0  0  0  0
   -7.7253   12.4980  -13.5014 H   0  0  0  0  0  0  0  0  0  0  0  0
   -6.2248   11.5719  -13.8442 H   0  0  0  0  0  0  0  0  0  0  0  0
   -8.1032   10.5248   -7.5881 H   0  0  0  0  0  0  0  0  0  0  0  0
   -7.3800    8.8809   -7.5492 H   0  0  0  0  0  0  0  0  0  0  0  0
   -4.8756    8.7823   -8.4819 H   0  0  0  0  0  0  0  0  0  0  0  0
   -2.6674    9.7693   -8.0332 H   0  0  0  0  0  0  0  0  0  0  0  0
   -4.5421   13.2987   -6.4789 H   0  0  0  0  0  0  0  0  0  0  0  0
   -6.7619   12.3053   -6.9110 H   0  0  0  0  0  0  0  0  0  0  0  0
   -2.4737   14.2103   -6.1456 H   0  0  0  0  0  0  0  0  0  0  0  0
   -0.6522   10.6178   -7.5964 H   0  0  0  0  0  0  0  0  0  0  0  0
    1.4382   14.3462   -6.0082 H   0  0  0  0  0  0  0  0  0  0  0  0
    0.1696   15.4967   -6.5499 H   0  0  0  0  0  0  0  0  0  0  0  0
    0.1274   14.8336   -4.8810 H   0  0  0  0  0  0  0  0  0  0  0  0
   -6.6284   14.1271  -13.8790 H   0  0  0  0  0  0  0  0  0  0  0  0
   -6.2658   15.4268  -12.6932 H   0  0  0  0  0  0  0  0  0  0  0  0
   -4.2565   13.9474  -14.4640 H   0  0  0  0  0  0  0  0  0  0  0  0
   -4.7758   15.6607  -14.6111 H   0  0  0  0  0  0  0  0  0  0  0  0
   -3.0304   13.2488  -12.7378 H   0  0  0  0  0  0  0  0  0  0  0  0
   -2.4269   14.3849  -11.4842 H   0  0  0  0  0  0  0  0  0  0  0  0
   -4.7488   14.7031  -10.6438 H   0  0  0  0  0  0  0  0  0  0  0  0
   -4.2928   12.9662  -10.6013 H   0  0  0  0  0  0  0  0  0  0  0  0
  1  2  2  0  0  0  0
  1  4  1  0  0  0  0
  1 11  1  0  0  0  0
  2  6  1  0  0  0  0
  3  4  1  0  0  0  0
  3  5  2  0  0  0  0
  5  6  1  0  0  0  0
  5  9  1  0  0  0  0
  6  7  2  0  0  0  0
  7  8  1  0  0  0  0
  7 10  1  0  0  0  0
  8  9  2  0  0  0  0
 10 12  1  0  0  0  0
 11 24  1  0  0  0  0
 11 28  1  0  0  0  0
 12 13  2  0  0  0  0
 12 17  1  0  0  0  0
 13 14  1  0  0  0  0
 14 15  2  0  0  0  0
 15 16  1  0  0  0  0
 15 18  1  0  0  0  0
 16 17  2  0  0  0  0
 18 19  2  0  0  0  0
 18 22  1  0  0  0  0
 19 20  1  0  0  0  0
 20 21  1  0  0  0  0
 20 23  1  0  0  0  0
 21 22  2  0  0  0  0
 24 25  1  0  0  0  0
 25 26  1  0  0  0  0
 26 27  1  0  0  0  0
 27 28  1  0  0  0  0
  2 29  1  0  0  0  0
  3 30  1  0  0  0  0
  4 31  1  0  0  0  0
  4 32  1  0  0  0  0
 10 33  1  0  0  0  0
 10 34  1  0  0  0  0
 13 35  1  0  0  0  0
 14 36  1  0  0  0  0
 16 37  1  0  0  0  0
 17 38  1  0  0  0  0
 19 39  1  0  0  0  0
 22 40  1  0  0  0  0
 23 41  1  0  0  0  0
 23 42  1  0  0  0  0
 23 43  1  0  0  0  0
 24 44  1  0  0  0  0
 24 45  1  0  0  0  0
 25 46  1  0  0  0  0
 25 47  1  0  0  0  0
 27 48  1  0  0  0  0
 27 49  1  0  0  0  0
 28 50  1  0  0  0  0
 28 51  1  0  0  0  0
M  END
> <Name>
28

> <IC50[uM]>
30

$$$$
28
  -OEChem-05192314333D
 Structure written by MMmdl.
 51 55  0     0  0  0  0  0  0999 V2000
   -6.4084   12.3297  -11.9887 C   0  0  0  0  0  0  0  0  0  0  0  0
   -6.5165   11.7544  -10.7314 C   0  0  0  0  0  0  0  0  0  0  0  0
   -7.7418   10.5517  -13.0215 C   0  0  0  0  0  0  0  0  0  0  0  0
   -7.0245   11.7463  -13.1093 C   0  0  0  0  0  0  0  0  0  0  0  0
   -7.8268    9.9859  -11.7428 C   0  0  0  0  0  0  0  0  0  0  0  0
   -7.2396   10.5800  -10.6042 C   0  0  0  0  0  0  0  0  0  0  0  0
   -7.6095    9.7151   -9.5092 C   0  0  0  0  0  0  0  0  0  0  0  0
   -8.2849    8.7010   -9.9773 N   0  0  0  0  0  0  0  0  0  0  0  0
   -8.4373    8.8403  -11.2922 N   0  0  0  0  0  0  0  0  0  0  0  0
   -7.3311    9.8727   -8.0225 C   0  0  0  0  0  0  0  0  0  0  0  0
   -5.6734   13.4955  -12.1182 N   0  0  0  0  0  0  0  0  0  0  0  0
   -5.9616   10.4819   -7.7358 C   0  0  0  0  0  0  0  0  0  0  0  0
   -4.8034    9.7678   -8.0459 C   0  0  0  0  0  0  0  0  0  0  0  0
   -3.5615   10.3255   -7.7934 C   0  0  0  0  0  0  0  0  0  0  0  0
   -3.4526   11.6006   -7.2315 C   0  0  0  0  0  0  0  0  0  0  0  0
   -4.6161   12.3136   -6.9153 C   0  0  0  0  0  0  0  0  0  0  0  0
   -5.8662   11.7565   -7.1617 C   0  0  0  0  0  0  0  0  0  0  0  0
   -2.1079   12.1894   -6.9634 C   0  0  0  0  0  0  0  0  0  0  0  0
   -1.7834   13.4363   -6.4469 C   0  0  0  0  0  0  0  0  0  0  0  0
   -0.4443   13.4911   -6.3955 N   0  0  0  0  0  0  0  0  0  0  0  0
    0.1636   12.4174   -6.8067 N   0  0  0  0  0  0  0  0  0  0  0  0
   -0.8107   11.6018   -7.1804 C   0  0  0  0  0  0  0  0  0  0  0  0
    0.3735   14.6113   -5.9298 C   0  0  0  0  0  0  0  0  0  0  0  0
   -5.8857   14.5071  -13.1620 C   0  0  0  0  0  0  0  0  0  0  0  0
   -4.6042   14.8313  -13.9092 C   0  0  0  0  0  0  0  0  0  0  0  0
   -3.6374   15.2080  -12.9343 O   0  0  0  0  0  0  0  0  0  0  0  0
   -3.2854   14.1223  -12.1198 C   0  0  0  0  0  0  0  0  0  0  0  0
   -4.5109   13.8217  -11.2574 C   0  0  0  0  0  0  0  0  0  0  0  0
   -5.4950   11.5470  -10.3798 H   0  0  0  0  0  0  0  0  0  0  0  0
   -6.9870   12.4990  -10.0725 H   0  0  0  0  0  0  0  0  0  0  0  0
   -8.2018   10.0931  -13.8843 H   0  0  0  0  0  0  0  0  0  0  0  0
   -6.9404   12.2372  -14.0676 H   0  0  0  0  0  0  0  0  0  0  0  0
   -8.1032   10.5248   -7.5881 H   0  0  0  0  0  0  0  0  0  0  0  0
   -7.3800    8.8809   -7.5492 H   0  0  0  0  0  0  0  0  0  0  0  0
   -4.8756    8.7823   -8.4819 H   0  0  0  0  0  0  0  0  0  0  0  0
   -2.6674    9.7693   -8.0332 H   0  0  0  0  0  0  0  0  0  0  0  0
   -4.5421   13.2987   -6.4789 H   0  0  0  0  0  0  0  0  0  0  0  0
   -6.7619   12.3053   -6.9110 H   0  0  0  0  0  0  0  0  0  0  0  0
   -2.4737   14.2103   -6.1456 H   0  0  0  0  0  0  0  0  0  0  0  0
   -0.6522   10.6178   -7.5964 H   0  0  0  0  0  0  0  0  0  0  0  0
    1.4382   14.3462   -6.0082 H   0  0  0  0  0  0  0  0  0  0  0  0
    0.1696   15.4967   -6.5499 H   0  0  0  0  0  0  0  0  0  0  0  0
    0.1274   14.8336   -4.8810 H   0  0  0  0  0  0  0  0  0  0  0  0
   -6.6284   14.1271  -13.8790 H   0  0  0  0  0  0  0  0  0  0  0  0
   -6.2658   15.4268  -12.6932 H   0  0  0  0  0  0  0  0  0  0  0  0
   -4.2565   13.9474  -14.4640 H   0  0  0  0  0  0  0  0  0  0  0  0
   -4.7758   15.6607  -14.6111 H   0  0  0  0  0  0  0  0  0  0  0  0
   -3.0304   13.2488  -12.7378 H   0  0  0  0  0  0  0  0  0  0  0  0
   -2.4269   14.3849  -11.4842 H   0  0  0  0  0  0  0  0  0  0  0  0
   -4.7488   14.7031  -10.6438 H   0  0  0  0  0  0  0  0  0  0  0  0
   -4.2928   12.9662  -10.6013 H   0  0  0  0  0  0  0  0  0  0  0  0
  1  2  1  0  0  0  0
  1  4  2  0  0  0  0
  1 11  1  0  0  0  0
  2  6  1  0  0  0  0
  3  4  1  0  0  0  0
  3  5  2  0  0  0  0
  5  6  1  0  0  0  0
  5  9  1  0  0  0  0
  6  7  2  0  0  0  0
  7  8  1  0  0  0  0
  7 10  1  0  0  0  0
  8  9  2  0  0  0  0
 10 12  1  0  0  0  0
 11 24  1  0  0  0  0
 11 28  1  0  0  0  0
 12 13  2  0  0  0  0
 12 17  1  0  0  0  0
 13 14  1  0  0  0  0
 14 15  2  0  0  0  0
 15 16  1  0  0  0  0
 15 18  1  0  0  0  0
 16 17  2  0  0  0  0
 18 19  2  0  0  0  0
 18 22  1  0  0  0  0
 19 20  1  0  0  0  0
 20 21  1  0  0  0  0
 20 23  1  0  0  0  0
 21 22  2  0  0  0  0
 24 25  1  0  0  0  0
 25 26  1  0  0  0  0
 26 27  1  0  0  0  0
 27 28  1  0  0  0  0
  2 29  1  0  0  0  0
  2 30  1  0  0  0  0
  3 31  1  0  0  0  0
  4 32  1  0  0  0  0
 10 33  1  0  0  0  0
 10 34  1  0  0  0  0
 13 35  1  0  0  0  0
 14 36  1  0  0  0  0
 16 37  1  0  0  0  0
 17 38  1  0  0  0  0
 19 39  1  0  0  0  0
 22 40  1  0  0  0  0
 23 41  1  0  0  0  0
 23 42  1  0  0  0  0
 23 43  1  0  0  0  0
 24 44  1  0  0  0  0
 24 45  1  0  0  0  0
 25 46  1  0  0  0  0
 25 47  1  0  0  0  0
 27 48  1  0  0  0  0
 27 49  1  0  0  0  0
 28 50  1  0  0  0  0
 28 51  1  0  0  0  0
M  END
> <Name>
28

> <IC50[uM]>
30

$$$$
28
  -OEChem-05192314333D
 Structure written by MMmdl.
 51 55  0     1  0  0  0  0  0999 V2000
   -6.4084   12.3297  -11.9887 C   0  0  0  0  0  0  0  0  0  0  0  0
   -6.5165   11.7544  -10.7314 C   0  0  0  0  0  0  0  0  0  0  0  0
   -7.7418   10.5517  -13.0215 C   0  0  0  0  0  0  0  0  0  0  0  0
   -7.0245   11.7463  -13.1093 C   0  0  0  0  0  0  0  0  0  0  0  0
   -7.8268    9.9859  -11.7428 C   0  0  0  0  0  0  0  0  0  0  0  0
   -7.2396   10.5800  -10.6042 C   0  0  3  0  0  0  0  0  0  0  0  0
   -7.6095    9.7151   -9.5092 C   0  0  0  0  0  0  0  0  0  0  0  0
   -8.2849    8.7010   -9.9773 N   0  0  0  0  0  0  0  0  0  0  0  0
   -8.4373    8.8403  -11.2922 N   0  0  0  0  0  0  0  0  0  0  0  0
   -7.3311    9.8727   -8.0225 C   0  0  0  0  0  0  0  0  0  0  0  0
   -5.6734   13.4955  -12.1182 N   0  0  0  0  0  0  0  0  0  0  0  0
   -5.9616   10.4819   -7.7358 C   0  0  0  0  0  0  0  0  0  0  0  0
   -4.8034    9.7678   -8.0459 C   0  0  0  0  0  0  0  0  0  0  0  0
   -3.5615   10.3255   -7.7934 C   0  0  0  0  0  0  0  0  0  0  0  0
   -3.4526   11.6006   -7.2315 C   0  0  0  0  0  0  0  0  0  0  0  0
   -4.6161   12.3136   -6.9153 C   0  0  0  0  0  0  0  0  0  0  0  0
   -5.8662   11.7565   -7.1617 C   0  0  0  0  0  0  0  0  0  0  0  0
   -2.1079   12.1894   -6.9634 C   0  0  0  0  0  0  0  0  0  0  0  0
   -1.7834   13.4363   -6.4469 C   0  0  0  0  0  0  0  0  0  0  0  0
   -0.4443   13.4911   -6.3955 N   0  0  0  0  0  0  0  0  0  0  0  0
    0.1636   12.4174   -6.8067 N   0  0  0  0  0  0  0  0  0  0  0  0
   -0.8107   11.6018   -7.1804 C   0  0  0  0  0  0  0  0  0  0  0  0
    0.3735   14.6113   -5.9298 C   0  0  0  0  0  0  0  0  0  0  0  0
   -5.8857   14.5071  -13.1620 C   0  0  0  0  0  0  0  0  0  0  0  0
   -4.6042   14.8313  -13.9092 C   0  0  0  0  0  0  0  0  0  0  0  0
   -3.6374   15.2080  -12.9343 O   0  0  0  0  0  0  0  0  0  0  0  0
   -3.2854   14.1223  -12.1198 C   0  0  0  0  0  0  0  0  0  0  0  0
   -4.5109   13.8217  -11.2574 C   0  0  0  0  0  0  0  0  0  0  0  0
   -6.0481   12.2112   -9.8721 H   0  0  0  0  0  0  0  0  0  0  0  0
   -8.2018   10.0931  -13.8843 H   0  0  0  0  0  0  0  0  0  0  0  0
   -6.9404   12.2372  -14.0676 H   0  0  0  0  0  0  0  0  0  0  0  0
   -6.3233    9.9928  -10.7645 H   0  0  0  0  0  0  0  0  0  0  0  0
   -8.6336    7.9382   -9.4328 H   0  0  0  0  0  0  0  0  0  0  0  0
   -8.0292    9.5839   -7.2507 H   0  0  0  0  0  0  0  0  0  0  0  0
   -4.8756    8.7823   -8.4819 H   0  0  0  0  0  0  0  0  0  0  0  0
   -2.6674    9.7693   -8.0332 H   0  0  0  0  0  0  0  0  0  0  0  0
   -4.5421   13.2987   -6.4789 H   0  0  0  0  0  0  0  0  0  0  0  0
   -6.7619   12.3053   -6.9110 H   0  0  0  0  0  0  0  0  0  0  0  0
   -2.4737   14.2103   -6.1456 H   0  0  0  0  0  0  0  0  0  0  0  0
   -0.6522   10.6178   -7.5964 H   0  0  0  0  0  0  0  0  0  0  0  0
    1.4382   14.3462   -6.0082 H   0  0  0  0  0  0  0  0  0  0  0  0
    0.1696   15.4967   -6.5499 H   0  0  0  0  0  0  0  0  0  0  0  0
    0.1274   14.8336   -4.8810 H   0  0  0  0  0  0  0  0  0  0  0  0
   -6.6284   14.1271  -13.8790 H   0  0  0  0  0  0  0  0  0  0  0  0
   -6.2658   15.4268  -12.6932 H   0  0  0  0  0  0  0  0  0  0  0  0
   -4.2565   13.9474  -14.4640 H   0  0  0  0  0  0  0  0  0  0  0  0
   -4.7758   15.6607  -14.6111 H   0  0  0  0  0  0  0  0  0  0  0  0
   -3.0304   13.2488  -12.7378 H   0  0  0  0  0  0  0  0  0  0  0  0
   -2.4269   14.3849  -11.4842 H   0  0  0  0  0  0  0  0  0  0  0  0
   -4.7488   14.7031  -10.6438 H   0  0  0  0  0  0  0  0  0  0  0  0
   -4.2928   12.9662  -10.6013 H   0  0  0  0  0  0  0  0  0  0  0  0
  1  2  2  0  0  0  0
  1  4  1  0  0  0  0
  1 11  1  0  0  0  0
  2  6  1  0  0  0  0
  3  4  2  0  0  0  0
  3  5  1  0  0  0  0
  5  6  1  0  0  0  0
  5  9  2  0  0  0  0
  6  7  1  0  0  0  0
  7  8  1  0  0  0  0
  7 10  2  3  0  0  0
  8  9  1  0  0  0  0
 10 12  1  0  0  0  0
 11 24  1  0  0  0  0
 11 28  1  0  0  0  0
 12 13  2  0  0  0  0
 12 17  1  0  0  0  0
 13 14  1  0  0  0  0
 14 15  2  0  0  0  0
 15 16  1  0  0  0  0
 15 18  1  0  0  0  0
 16 17  2  0  0  0  0
 18 19  2  0  0  0  0
 18 22  1  0  0  0  0
 19 20  1  0  0  0  0
 20 21  1  0  0  0  0
 20 23  1  0  0  0  0
 21 22  2  0  0  0  0
 24 25  1  0  0  0  0
 25 26  1  0  0  0  0
 26 27  1  0  0  0  0
 27 28  1  0  0  0  0
  2 29  1  0  0  0  0
  3 30  1  0  0  0  0
  4 31  1  0  0  0  0
  6 32  1  0  0  0  0
  8 33  1  0  0  0  0
 10 34  1  0  0  0  0
 13 35  1  0  0  0  0
 14 36  1  0  0  0  0
 16 37  1  0  0  0  0
 17 38  1  0  0  0  0
 19 39  1  0  0  0  0
 22 40  1  0  0  0  0
 23 41  1  0  0  0  0
 23 42  1  0  0  0  0
 23 43  1  0  0  0  0
 24 44  1  0  0  0  0
 24 45  1  0  0  0  0
 25 46  1  0  0  0  0
 25 47  1  0  0  0  0
 27 48  1  0  0  0  0
 27 49  1  0  0  0  0
 28 50  1  0  0  0  0
 28 51  1  0  0  0  0
M  END
> <Name>
28

> <IC50[uM]>
30

$$$$
28
  -OEChem-05192314333D
 Structure written by MMmdl.
 51 55  0     1  0  0  0  0  0999 V2000
   -6.4084   12.3297  -11.9887 C   0  0  0  0  0  0  0  0  0  0  0  0
   -6.5165   11.7544  -10.7314 C   0  0  0  0  0  0  0  0  0  0  0  0
   -7.7418   10.5517  -13.0215 C   0  0  0  0  0  0  0  0  0  0  0  0
   -7.0245   11.7463  -13.1093 C   0  0  0  0  0  0  0  0  0  0  0  0
   -7.8268    9.9859  -11.7428 C   0  0  0  0  0  0  0  0  0  0  0  0
   -7.2396   10.5800  -10.6042 C   0  0  0  0  0  0  0  0  0  0  0  0
   -7.6095    9.7151   -9.5092 C   0  0  0  0  0  0  0  0  0  0  0  0
   -8.2849    8.7010   -9.9773 N   0  0  0  0  0  0  0  0  0  0  0  0
   -8.4373    8.8403  -11.2922 N   0  0  0  0  0  0  0  0  0  0  0  0
   -7.3311    9.8727   -8.0225 C   0  0  0  0  0  0  0  0  0  0  0  0
   -5.6734   13.4955  -12.1182 N   0  0  0  0  0  0  0  0  0  0  0  0
   -5.9616   10.4819   -7.7358 C   0  0  0  0  0  0  0  0  0  0  0  0
   -4.8034    9.7678   -8.0459 C   0  0  0  0  0  0  0  0  0  0  0  0
   -3.5615   10.3255   -7.7934 C   0  0  0  0  0  0  0  0  0  0  0  0
   -3.4526   11.6006   -7.2315 C   0  0  0  0  0  0  0  0  0  0  0  0
   -4.6161   12.3136   -6.9153 C   0  0  0  0  0  0  0  0  0  0  0  0
   -5.8662   11.7565   -7.1617 C   0  0  0  0  0  0  0  0  0  0  0  0
   -2.1079   12.1894   -6.9634 C   0  0  0  0  0  0  0  0  0  0  0  0
   -1.7834   13.4363   -6.4469 C   0  0  0  0  0  0  0  0  0  0  0  0
   -0.4443   13.4911   -6.3955 N   0  0  3  0  0  0  0  0  0  0  0  0
    0.1636   12.4174   -6.8067 N   0  0  0  0  0  0  0  0  0  0  0  0
   -0.8107   11.6018   -7.1804 C   0  0  0  0  0  0  0  0  0  0  0  0
    0.3735   14.6113   -5.9298 C   0  0  0  0  0  0  0  0  0  0  0  0
   -5.8857   14.5071  -13.1620 C   0  0  0  0  0  0  0  0  0  0  0  0
   -4.6042   14.8313  -13.9092 C   0  0  0  0  0  0  0  0  0  0  0  0
   -3.6374   15.2080  -12.9343 O   0  0  0  0  0  0  0  0  0  0  0  0
   -3.2854   14.1223  -12.1198 C   0  0  0  0  0  0  0  0  0  0  0  0
   -4.5109   13.8217  -11.2574 C   0  0  0  0  0  0  0  0  0  0  0  0
   -6.0481   12.2112   -9.8721 H   0  0  0  0  0  0  0  0  0  0  0  0
   -8.2018   10.0931  -13.8843 H   0  0  0  0  0  0  0  0  0  0  0  0
   -6.9404   12.2372  -14.0676 H   0  0  0  0  0  0  0  0  0  0  0  0
   -8.0292    9.5839   -7.2507 H   0  0  0  0  0  0  0  0  0  0  0  0
   -5.9522   10.9330   -8.7390 H   0  0  0  0  0  0  0  0  0  0  0  0
   -4.8756    8.7823   -8.4819 H   0  0  0  0  0  0  0  0  0  0  0  0
   -2.6674    9.7693   -8.0332 H   0  0  0  0  0  0  0  0  0  0  0  0
   -4.5421   13.2987   -6.4789 H   0  0  0  0  0  0  0  0  0  0  0  0
   -6.7619   12.3053   -6.9110 H   0  0  0  0  0  0  0  0  0  0  0  0
   -2.1713   14.2311   -7.1010 H   0  0  0  0  0  0  0  0  0  0  0  0
   -2.2073   13.5518   -5.4385 H   0  0  0  0  0  0  0  0  0  0  0  0
   -0.6522   10.6178   -7.5964 H   0  0  0  0  0  0  0  0  0  0  0  0
    1.4382   14.3462   -6.0082 H   0  0  0  0  0  0  0  0  0  0  0  0
    0.1696   15.4967   -6.5499 H   0  0  0  0  0  0  0  0  0  0  0  0
    0.1274   14.8336   -4.8810 H   0  0  0  0  0  0  0  0  0  0  0  0
   -6.6284   14.1271  -13.8790 H   0  0  0  0  0  0  0  0  0  0  0  0
   -6.2658   15.4268  -12.6932 H   0  0  0  0  0  0  0  0  0  0  0  0
   -4.2565   13.9474  -14.4640 H   0  0  0  0  0  0  0  0  0  0  0  0
   -4.7758   15.6607  -14.6111 H   0  0  0  0  0  0  0  0  0  0  0  0
   -3.0304   13.2488  -12.7378 H   0  0  0  0  0  0  0  0  0  0  0  0
   -2.4269   14.3849  -11.4842 H   0  0  0  0  0  0  0  0  0  0  0  0
   -4.7488   14.7031  -10.6438 H   0  0  0  0  0  0  0  0  0  0  0  0
   -4.2928   12.9662  -10.6013 H   0  0  0  0  0  0  0  0  0  0  0  0
  1  2  2  0  0  0  0
  1  4  1  0  0  0  0
  1 11  1  0  0  0  0
  2  6  1  0  0  0  0
  3  4  2  0  0  0  0
  3  5  1  0  0  0  0
  5  6  2  0  0  0  0
  5  9  1  0  0  0  0
  6  7  1  0  0  0  0
  7  8  1  0  0  0  0
  7 10  2  3  0  0  0
  8  9  2  0  0  0  0
 10 12  1  0  0  0  0
 11 24  1  0  0  0  0
 11 28  1  0  0  0  0
 12 13  1  0  0  0  0
 12 17  1  0  0  0  0
 13 14  2  0  0  0  0
 14 15  1  0  0  0  0
 15 16  1  0  0  0  0
 15 18  2  0  0  0  0
 16 17  2  0  0  0  0
 18 19  1  0  0  0  0
 18 22  1  0  0  0  0
 19 20  1  0  0  0  0
 20 21  1  0  0  0  0
 20 23  1  0  0  0  0
 21 22  2  0  0  0  0
 24 25  1  0  0  0  0
 25 26  1  0  0  0  0
 26 27  1  0  0  0  0
 27 28  1  0  0  0  0
  2 29  1  0  0  0  0
  3 30  1  0  0  0  0
  4 31  1  0  0  0  0
 10 32  1  0  0  0  0
 12 33  1  0  0  0  0
 13 34  1  0  0  0  0
 14 35  1  0  0  0  0
 16 36  1  0  0  0  0
 17 37  1  0  0  0  0
 19 38  1  0  0  0  0
 19 39  1  0  0  0  0
 22 40  1  0  0  0  0
 23 41  1  0  0  0  0
 23 42  1  0  0  0  0
 23 43  1  0  0  0  0
 24 44  1  0  0  0  0
 24 45  1  0  0  0  0
 25 46  1  0  0  0  0
 25 47  1  0  0  0  0
 27 48  1  0  0  0  0
 27 49  1  0  0  0  0
 28 50  1  0  0  0  0
 28 51  1  0  0  0  0
M  END
> <Name>
28

> <IC50[uM]>
30

$$$$
28
  -OEChem-05192314333D
 Structure written by MMmdl.
 51 55  0     1  0  0  0  0  0999 V2000
   -6.4084   12.3297  -11.9887 C   0  0  0  0  0  0  0  0  0  0  0  0
   -6.5165   11.7544  -10.7314 C   0  0  0  0  0  0  0  0  0  0  0  0
   -7.7418   10.5517  -13.0215 C   0  0  0  0  0  0  0  0  0  0  0  0
   -7.0245   11.7463  -13.1093 C   0  0  0  0  0  0  0  0  0  0  0  0
   -7.8268    9.9859  -11.7428 C   0  0  0  0  0  0  0  0  0  0  0  0
   -7.2396   10.5800  -10.6042 C   0  0  0  0  0  0  0  0  0  0  0  0
   -7.6095    9.7151   -9.5092 C   0  0  0  0  0  0  0  0  0  0  0  0
   -8.2849    8.7010   -9.9773 N   0  0  0  0  0  0  0  0  0  0  0  0
   -8.4373    8.8403  -11.2922 N   0  0  0  0  0  0  0  0  0  0  0  0
   -7.3311    9.8727   -8.0225 C   0  0  0  0  0  0  0  0  0  0  0  0
   -5.6734   13.4955  -12.1182 N   0  0  0  0  0  0  0  0  0  0  0  0
   -5.9616   10.4819   -7.7358 C   0  0  0  0  0  0  0  0  0  0  0  0
   -4.8034    9.7678   -8.0459 C   0  0  0  0  0  0  0  0  0  0  0  0
   -3.5615   10.3255   -7.7934 C   0  0  0  0  0  0  0  0  0  0  0  0
   -3.4526   11.6006   -7.2315 C   0  0  0  0  0  0  0  0  0  0  0  0
   -4.6161   12.3136   -6.9153 C   0  0  0  0  0  0  0  0  0  0  0  0
   -5.8662   11.7565   -7.1617 C   0  0  0  0  0  0  0  0  0  0  0  0
   -2.1079   12.1894   -6.9634 C   0  0  0  0  0  0  0  0  0  0  0  0
   -1.7834   13.4363   -6.4469 C   0  0  0  0  0  0  0  0  0  0  0  0
   -0.4443   13.4911   -6.3955 N   0  0  3  0  0  0  0  0  0  0  0  0
    0.1636   12.4174   -6.8067 N   0  0  0  0  0  0  0  0  0  0  0  0
   -0.8107   11.6018   -7.1804 C   0  0  0  0  0  0  0  0  0  0  0  0
    0.3735   14.6113   -5.9298 C   0  0  0  0  0  0  0  0  0  0  0  0
   -5.8857   14.5071  -13.1620 C   0  0  0  0  0  0  0  0  0  0  0  0
   -4.6042   14.8313  -13.9092 C   0  0  0  0  0  0  0  0  0  0  0  0
   -3.6374   15.2080  -12.9343 O   0  0  0  0  0  0  0  0  0  0  0  0
   -3.2854   14.1223  -12.1198 C   0  0  0  0  0  0  0  0  0  0  0  0
   -4.5109   13.8217  -11.2574 C   0  0  0  0  0  0  0  0  0  0  0  0
   -6.0481   12.2112   -9.8721 H   0  0  0  0  0  0  0  0  0  0  0  0
   -8.2018   10.0931  -13.8843 H   0  0  0  0  0  0  0  0  0  0  0  0
   -6.9404   12.2372  -14.0676 H   0  0  0  0  0  0  0  0  0  0  0  0
   -8.0292    9.5839   -7.2507 H   0  0  0  0  0  0  0  0  0  0  0  0
   -4.8756    8.7823   -8.4819 H   0  0  0  0  0  0  0  0  0  0  0  0
   -3.0403    9.6366   -7.1124 H   0  0  0  0  0  0  0  0  0  0  0  0
   -3.0311   10.3602   -8.7564 H   0  0  0  0  0  0  0  0  0  0  0  0
   -4.5421   13.2987   -6.4789 H   0  0  0  0  0  0  0  0  0  0  0  0
   -6.7619   12.3053   -6.9110 H   0  0  0  0  0  0  0  0  0  0  0  0
   -2.1713   14.2311   -7.1010 H   0  0  0  0  0  0  0  0  0  0  0  0
   -2.2073   13.5518   -5.4385 H   0  0  0  0  0  0  0  0  0  0  0  0
   -0.6522   10.6178   -7.5964 H   0  0  0  0  0  0  0  0  0  0  0  0
    1.4382   14.3462   -6.0082 H   0  0  0  0  0  0  0  0  0  0  0  0
    0.1696   15.4967   -6.5499 H   0  0  0  0  0  0  0  0  0  0  0  0
    0.1274   14.8336   -4.8810 H   0  0  0  0  0  0  0  0  0  0  0  0
   -6.6284   14.1271  -13.8790 H   0  0  0  0  0  0  0  0  0  0  0  0
   -6.2658   15.4268  -12.6932 H   0  0  0  0  0  0  0  0  0  0  0  0
   -4.2565   13.9474  -14.4640 H   0  0  0  0  0  0  0  0  0  0  0  0
   -4.7758   15.6607  -14.6111 H   0  0  0  0  0  0  0  0  0  0  0  0
   -3.0304   13.2488  -12.7378 H   0  0  0  0  0  0  0  0  0  0  0  0
   -2.4269   14.3849  -11.4842 H   0  0  0  0  0  0  0  0  0  0  0  0
   -4.7488   14.7031  -10.6438 H   0  0  0  0  0  0  0  0  0  0  0  0
   -4.2928   12.9662  -10.6013 H   0  0  0  0  0  0  0  0  0  0  0  0
  1  2  2  0  0  0  0
  1  4  1  0  0  0  0
  1 11  1  0  0  0  0
  2  6  1  0  0  0  0
  3  4  2  0  0  0  0
  3  5  1  0  0  0  0
  5  6  2  0  0  0  0
  5  9  1  0  0  0  0
  6  7  1  0  0  0  0
  7  8  1  0  0  0  0
  7 10  2  3  0  0  0
  8  9  2  0  0  0  0
 10 12  1  0  0  0  0
 11 24  1  0  0  0  0
 11 28  1  0  0  0  0
 12 13  2  0  0  0  0
 12 17  1  0  0  0  0
 13 14  1  0  0  0  0
 14 15  1  0  0  0  0
 15 16  1  0  0  0  0
 15 18  2  0  0  0  0
 16 17  2  0  0  0  0
 18 19  1  0  0  0  0
 18 22  1  0  0  0  0
 19 20  1  0  0  0  0
 20 21  1  0  0  0  0
 20 23  1  0  0  0  0
 21 22  2  0  0  0  0
 24 25  1  0  0  0  0
 25 26  1  0  0  0  0
 26 27  1  0  0  0  0
 27 28  1  0  0  0  0
  2 29  1  0  0  0  0
  3 30  1  0  0  0  0
  4 31  1  0  0  0  0
 10 32  1  0  0  0  0
 13 33  1  0  0  0  0
 14 34  1  0  0  0  0
 14 35  1  0  0  0  0
 16 36  1  0  0  0  0
 17 37  1  0  0  0  0
 19 38  1  0  0  0  0
 19 39  1  0  0  0  0
 22 40  1  0  0  0  0
 23 41  1  0  0  0  0
 23 42  1  0  0  0  0
 23 43  1  0  0  0  0
 24 44  1  0  0  0  0
 24 45  1  0  0  0  0
 25 46  1  0  0  0  0
 25 47  1  0  0  0  0
 27 48  1  0  0  0  0
 27 49  1  0  0  0  0
 28 50  1  0  0  0  0
 28 51  1  0  0  0  0
M  END
> <Name>
28

> <IC50[uM]>
30

$$$$
28
  -OEChem-05192314333D
 Structure written by MMmdl.
 51 55  0     1  0  0  0  0  0999 V2000
   -6.4084   12.3297  -11.9887 C   0  0  0  0  0  0  0  0  0  0  0  0
   -6.5165   11.7544  -10.7314 C   0  0  0  0  0  0  0  0  0  0  0  0
   -7.7418   10.5517  -13.0215 C   0  0  0  0  0  0  0  0  0  0  0  0
   -7.0245   11.7463  -13.1093 C   0  0  0  0  0  0  0  0  0  0  0  0
   -7.8268    9.9859  -11.7428 C   0  0  0  0  0  0  0  0  0  0  0  0
   -7.2396   10.5800  -10.6042 C   0  0  3  0  0  0  0  0  0  0  0  0
   -7.6095    9.7151   -9.5092 C   0  0  0  0  0  0  0  0  0  0  0  0
   -8.2849    8.7010   -9.9773 N   0  0  0  0  0  0  0  0  0  0  0  0
   -8.4373    8.8403  -11.2922 N   0  0  0  0  0  0  0  0  0  0  0  0
   -7.3311    9.8727   -8.0225 C   0  0  0  0  0  0  0  0  0  0  0  0
   -5.6734   13.4955  -12.1182 N   0  0  0  0  0  0  0  0  0  0  0  0
   -5.9616   10.4819   -7.7358 C   0  0  0  0  0  0  0  0  0  0  0  0
   -4.8034    9.7678   -8.0459 C   0  0  0  0  0  0  0  0  0  0  0  0
   -3.5615   10.3255   -7.7934 C   0  0  0  0  0  0  0  0  0  0  0  0
   -3.4526   11.6006   -7.2315 C   0  0  0  0  0  0  0  0  0  0  0  0
   -4.6161   12.3136   -6.9153 C   0  0  0  0  0  0  0  0  0  0  0  0
   -5.8662   11.7565   -7.1617 C   0  0  0  0  0  0  0  0  0  0  0  0
   -2.1079   12.1894   -6.9634 C   0  0  0  0  0  0  0  0  0  0  0  0
   -1.7834   13.4363   -6.4469 C   0  0  0  0  0  0  0  0  0  0  0  0
   -0.4443   13.4911   -6.3955 N   0  0  3  0  0  0  0  0  0  0  0  0
    0.1636   12.4174   -6.8067 N   0  0  0  0  0  0  0  0  0  0  0  0
   -0.8107   11.6018   -7.1804 C   0  0  0  0  0  0  0  0  0  0  0  0
    0.3735   14.6113   -5.9298 C   0  0  0  0  0  0  0  0  0  0  0  0
   -5.8857   14.5071  -13.1620 C   0  0  0  0  0  0  0  0  0  0  0  0
   -4.6042   14.8313  -13.9092 C   0  0  0  0  0  0  0  0  0  0  0  0
   -3.6374   15.2080  -12.9343 O   0  0  0  0  0  0  0  0  0  0  0  0
   -3.2854   14.1223  -12.1198 C   0  0  0  0  0  0  0  0  0  0  0  0
   -4.5109   13.8217  -11.2574 C   0  0  0  0  0  0  0  0  0  0  0  0
   -6.0481   12.2112   -9.8721 H   0  0  0  0  0  0  0  0  0  0  0  0
   -8.2018   10.0931  -13.8843 H   0  0  0  0  0  0  0  0  0  0  0  0
   -6.9404   12.2372  -14.0676 H   0  0  0  0  0  0  0  0  0  0  0  0
   -6.3233    9.9928  -10.7645 H   0  0  0  0  0  0  0  0  0  0  0  0
   -8.0292    9.5839   -7.2507 H   0  0  0  0  0  0  0  0  0  0  0  0
   -4.8756    8.7823   -8.4819 H   0  0  0  0  0  0  0  0  0  0  0  0
   -2.6674    9.7693   -8.0332 H   0  0  0  0  0  0  0  0  0  0  0  0
   -4.5421   13.2987   -6.4789 H   0  0  0  0  0  0  0  0  0  0  0  0
   -6.7619   12.3053   -6.9110 H   0  0  0  0  0  0  0  0  0  0  0  0
   -2.1713   14.2311   -7.1010 H   0  0  0  0  0  0  0  0  0  0  0  0
   -2.2073   13.5518   -5.4385 H   0  0  0  0  0  0  0  0  0  0  0  0
   -0.6522   10.6178   -7.5964 H   0  0  0  0  0  0  0  0  0  0  0  0
    1.4382   14.3462   -6.0082 H   0  0  0  0  0  0  0  0  0  0  0  0
    0.1696   15.4967   -6.5499 H   0  0  0  0  0  0  0  0  0  0  0  0
    0.1274   14.8336   -4.8810 H   0  0  0  0  0  0  0  0  0  0  0  0
   -6.6284   14.1271  -13.8790 H   0  0  0  0  0  0  0  0  0  0  0  0
   -6.2658   15.4268  -12.6932 H   0  0  0  0  0  0  0  0  0  0  0  0
   -4.2565   13.9474  -14.4640 H   0  0  0  0  0  0  0  0  0  0  0  0
   -4.7758   15.6607  -14.6111 H   0  0  0  0  0  0  0  0  0  0  0  0
   -3.0304   13.2488  -12.7378 H   0  0  0  0  0  0  0  0  0  0  0  0
   -2.4269   14.3849  -11.4842 H   0  0  0  0  0  0  0  0  0  0  0  0
   -4.7488   14.7031  -10.6438 H   0  0  0  0  0  0  0  0  0  0  0  0
   -4.2928   12.9662  -10.6013 H   0  0  0  0  0  0  0  0  0  0  0  0
  1  2  2  0  0  0  0
  1  4  1  0  0  0  0
  1 11  1  0  0  0  0
  2  6  1  0  0  0  0
  3  4  2  0  0  0  0
  3  5  1  0  0  0  0
  5  6  1  0  0  0  0
  5  9  2  0  0  0  0
  6  7  1  0  0  0  0
  7  8  2  0  0  0  0
  7 10  1  0  0  0  0
  8  9  1  0  0  0  0
 10 12  2  0  0  0  0
 11 24  1  0  0  0  0
 11 28  1  0  0  0  0
 12 13  1  0  0  0  0
 12 17  1  0  0  0  0
 13 14  2  0  0  0  0
 14 15  1  0  0  0  0
 15 16  1  0  0  0  0
 15 18  2  0  0  0  0
 16 17  2  0  0  0  0
 18 19  1  0  0  0  0
 18 22  1  0  0  0  0
 19 20  1  0  0  0  0
 20 21  1  0  0  0  0
 20 23  1  0  0  0  0
 21 22  2  0  0  0  0
 24 25  1  0  0  0  0
 25 26  1  0  0  0  0
 26 27  1  0  0  0  0
 27 28  1  0  0  0  0
  2 29  1  0  0  0  0
  3 30  1  0  0  0  0
  4 31  1  0  0  0  0
  6 32  1  0  0  0  0
 10 33  1  0  0  0  0
 13 34  1  0  0  0  0
 14 35  1  0  0  0  0
 16 36  1  0  0  0  0
 17 37  1  0  0  0  0
 19 38  1  0  0  0  0
 19 39  1  0  0  0  0
 22 40  1  0  0  0  0
 23 41  1  0  0  0  0
 23 42  1  0  0  0  0
 23 43  1  0  0  0  0
 24 44  1  0  0  0  0
 24 45  1  0  0  0  0
 25 46  1  0  0  0  0
 25 47  1  0  0  0  0
 27 48  1  0  0  0  0
 27 49  1  0  0  0  0
 28 50  1  0  0  0  0
 28 51  1  0  0  0  0
M  END
> <Name>
28

> <IC50[uM]>
30

$$$$
28
  -OEChem-05192314333D
 Structure written by MMmdl.
 51 55  0     1  0  0  0  0  0999 V2000
   -6.4084   12.3297  -11.9887 C   0  0  3  0  0  0  0  0  0  0  0  0
   -6.5165   11.7544  -10.7314 C   0  0  0  0  0  0  0  0  0  0  0  0
   -7.7418   10.5517  -13.0215 C   0  0  0  0  0  0  0  0  0  0  0  0
   -7.0245   11.7463  -13.1093 C   0  0  0  0  0  0  0  0  0  0  0  0
   -7.8268    9.9859  -11.7428 C   0  0  0  0  0  0  0  0  0  0  0  0
   -7.2396   10.5800  -10.6042 C   0  0  0  0  0  0  0  0  0  0  0  0
   -7.6095    9.7151   -9.5092 C   0  0  0  0  0  0  0  0  0  0  0  0
   -8.2849    8.7010   -9.9773 N   0  0  0  0  0  0  0  0  0  0  0  0
   -8.4373    8.8403  -11.2922 N   0  0  0  0  0  0  0  0  0  0  0  0
   -7.3311    9.8727   -8.0225 C   0  0  0  0  0  0  0  0  0  0  0  0
   -5.6734   13.4955  -12.1182 N   0  0  0  0  0  0  0  0  0  0  0  0
   -5.9616   10.4819   -7.7358 C   0  0  0  0  0  0  0  0  0  0  0  0
   -4.8034    9.7678   -8.0459 C   0  0  0  0  0  0  0  0  0  0  0  0
   -3.5615   10.3255   -7.7934 C   0  0  0  0  0  0  0  0  0  0  0  0
   -3.4526   11.6006   -7.2315 C   0  0  0  0  0  0  0  0  0  0  0  0
   -4.6161   12.3136   -6.9153 C   0  0  0  0  0  0  0  0  0  0  0  0
   -5.8662   11.7565   -7.1617 C   0  0  0  0  0  0  0  0  0  0  0  0
   -2.1079   12.1894   -6.9634 C   0  0  0  0  0  0  0  0  0  0  0  0
   -1.7834   13.4363   -6.4469 C   0  0  0  0  0  0  0  0  0  0  0  0
   -0.4443   13.4911   -6.3955 N   0  0  3  0  0  0  0  0  0  0  0  0
    0.1636   12.4174   -6.8067 N   0  0  0  0  0  0  0  0  0  0  0  0
   -0.8107   11.6018   -7.1804 C   0  0  0  0  0  0  0  0  0  0  0  0
    0.3735   14.6113   -5.9298 C   0  0  0  0  0  0  0  0  0  0  0  0
   -5.8857   14.5071  -13.1620 C   0  0  0  0  0  0  0  0  0  0  0  0
   -4.6042   14.8313  -13.9092 C   0  0  0  0  0  0  0  0  0  0  0  0
   -3.6374   15.2080  -12.9343 O   0  0  0  0  0  0  0  0  0  0  0  0
   -3.2854   14.1223  -12.1198 C   0  0  0  0  0  0  0  0  0  0  0  0
   -4.5109   13.8217  -11.2574 C   0  0  0  0  0  0  0  0  0  0  0  0
   -7.3155   12.9217  -11.7969 H   0  0  0  0  0  0  0  0  0  0  0  0
   -6.0481   12.2112   -9.8721 H   0  0  0  0  0  0  0  0  0  0  0  0
   -8.2018   10.0931  -13.8843 H   0  0  0  0  0  0  0  0  0  0  0  0
   -6.9404   12.2372  -14.0676 H   0  0  0  0  0  0  0  0  0  0  0  0
   -8.0292    9.5839   -7.2507 H   0  0  0  0  0  0  0  0  0  0  0  0
   -4.8756    8.7823   -8.4819 H   0  0  0  0  0  0  0  0  0  0  0  0
   -2.6674    9.7693   -8.0332 H   0  0  0  0  0  0  0  0  0  0  0  0
   -4.5421   13.2987   -6.4789 H   0  0  0  0  0  0  0  0  0  0  0  0
   -6.7619   12.3053   -6.9110 H   0  0  0  0  0  0  0  0  0  0  0  0
   -2.1713   14.2311   -7.1010 H   0  0  0  0  0  0  0  0  0  0  0  0
   -2.2073   13.5518   -5.4385 H   0  0  0  0  0  0  0  0  0  0  0  0
   -0.6522   10.6178   -7.5964 H   0  0  0  0  0  0  0  0  0  0  0  0
    1.4382   14.3462   -6.0082 H   0  0  0  0  0  0  0  0  0  0  0  0
    0.1696   15.4967   -6.5499 H   0  0  0  0  0  0  0  0  0  0  0  0
    0.1274   14.8336   -4.8810 H   0  0  0  0  0  0  0  0  0  0  0  0
   -6.6284   14.1271  -13.8790 H   0  0  0  0  0  0  0  0  0  0  0  0
   -6.2658   15.4268  -12.6932 H   0  0  0  0  0  0  0  0  0  0  0  0
   -4.2565   13.9474  -14.4640 H   0  0  0  0  0  0  0  0  0  0  0  0
   -4.7758   15.6607  -14.6111 H   0  0  0  0  0  0  0  0  0  0  0  0
   -3.0304   13.2488  -12.7378 H   0  0  0  0  0  0  0  0  0  0  0  0
   -2.4269   14.3849  -11.4842 H   0  0  0  0  0  0  0  0  0  0  0  0
   -4.7488   14.7031  -10.6438 H   0  0  0  0  0  0  0  0  0  0  0  0
   -4.2928   12.9662  -10.6013 H   0  0  0  0  0  0  0  0  0  0  0  0
  1  2  1  0  0  0  0
  1  4  1  0  0  0  0
  1 11  1  0  0  0  0
  2  6  2  0  0  0  0
  3  4  2  0  0  0  0
  3  5  1  0  0  0  0
  5  6  1  0  0  0  0
  5  9  2  0  0  0  0
  6  7  1  0  0  0  0
  7  8  2  0  0  0  0
  7 10  1  0  0  0  0
  8  9  1  0  0  0  0
 10 12  2  0  0  0  0
 11 24  1  0  0  0  0
 11 28  1  0  0  0  0
 12 13  1  0  0  0  0
 12 17  1  0  0  0  0
 13 14  2  0  0  0  0
 14 15  1  0  0  0  0
 15 16  1  0  0  0  0
 15 18  2  0  0  0  0
 16 17  2  0  0  0  0
 18 19  1  0  0  0  0
 18 22  1  0  0  0  0
 19 20  1  0  0  0  0
 20 21  1  0  0  0  0
 20 23  1  0  0  0  0
 21 22  2  0  0  0  0
 24 25  1  0  0  0  0
 25 26  1  0  0  0  0
 26 27  1  0  0  0  0
 27 28  1  0  0  0  0
  1 29  1  0  0  0  0
  2 30  1  0  0  0  0
  3 31  1  0  0  0  0
  4 32  1  0  0  0  0
 10 33  1  0  0  0  0
 13 34  1  0  0  0  0
 14 35  1  0  0  0  0
 16 36  1  0  0  0  0
 17 37  1  0  0  0  0
 19 38  1  0  0  0  0
 19 39  1  0  0  0  0
 22 40  1  0  0  0  0
 23 41  1  0  0  0  0
 23 42  1  0  0  0  0
 23 43  1  0  0  0  0
 24 44  1  0  0  0  0
 24 45  1  0  0  0  0
 25 46  1  0  0  0  0
 25 47  1  0  0  0  0
 27 48  1  0  0  0  0
 27 49  1  0  0  0  0
 28 50  1  0  0  0  0
 28 51  1  0  0  0  0
M  END
> <Name>
28

> <IC50[uM]>
30

$$$$
28
  -OEChem-05192314333D
 Structure written by MMmdl.
 51 55  0     1  0  0  0  0  0999 V2000
   -6.4084   12.3297  -11.9887 C   0  0  0  0  0  0  0  0  0  0  0  0
   -6.5165   11.7544  -10.7314 C   0  0  0  0  0  0  0  0  0  0  0  0
   -7.7418   10.5517  -13.0215 C   0  0  0  0  0  0  0  0  0  0  0  0
   -7.0245   11.7463  -13.1093 C   0  0  0  0  0  0  0  0  0  0  0  0
   -7.8268    9.9859  -11.7428 C   0  0  0  0  0  0  0  0  0  0  0  0
   -7.2396   10.5800  -10.6042 C   0  0  0  0  0  0  0  0  0  0  0  0
   -7.6095    9.7151   -9.5092 C   0  0  0  0  0  0  0  0  0  0  0  0
   -8.2849    8.7010   -9.9773 N   0  0  0  0  0  0  0  0  0  0  0  0
   -8.4373    8.8403  -11.2922 N   0  0  0  0  0  0  0  0  0  0  0  0
   -7.3311    9.8727   -8.0225 C   0  0  0  0  0  0  0  0  0  0  0  0
   -5.6734   13.4955  -12.1182 N   0  0  0  0  0  0  0  0  0  0  0  0
   -5.9616   10.4819   -7.7358 C   0  0  0  0  0  0  0  0  0  0  0  0
   -4.8034    9.7678   -8.0459 C   0  0  0  0  0  0  0  0  0  0  0  0
   -3.5615   10.3255   -7.7934 C   0  0  0  0  0  0  0  0  0  0  0  0
   -3.4526   11.6006   -7.2315 C   0  0  0  0  0  0  0  0  0  0  0  0
   -4.6161   12.3136   -6.9153 C   0  0  0  0  0  0  0  0  0  0  0  0
   -5.8662   11.7565   -7.1617 C   0  0  0  0  0  0  0  0  0  0  0  0
   -2.1079   12.1894   -6.9634 C   0  0  0  0  0  0  0  0  0  0  0  0
   -1.7834   13.4363   -6.4469 C   0  0  0  0  0  0  0  0  0  0  0  0
   -0.4443   13.4911   -6.3955 N   0  0  3  0  0  0  0  0  0  0  0  0
    0.1636   12.4174   -6.8067 N   0  0  0  0  0  0  0  0  0  0  0  0
   -0.8107   11.6018   -7.1804 C   0  0  0  0  0  0  0  0  0  0  0  0
    0.3735   14.6113   -5.9298 C   0  0  0  0  0  0  0  0  0  0  0  0
   -5.8857   14.5071  -13.1620 C   0  0  0  0  0  0  0  0  0  0  0  0
   -4.6042   14.8313  -13.9092 C   0  0  0  0  0  0  0  0  0  0  0  0
   -3.6374   15.2080  -12.9343 O   0  0  0  0  0  0  0  0  0  0  0  0
   -3.2854   14.1223  -12.1198 C   0  0  0  0  0  0  0  0  0  0  0  0
   -4.5109   13.8217  -11.2574 C   0  0  0  0  0  0  0  0  0  0  0  0
   -6.0481   12.2112   -9.8721 H   0  0  0  0  0  0  0  0  0  0  0  0
   -8.7656   10.7458  -13.3738 H   0  0  0  0  0  0  0  0  0  0  0  0
   -7.2589    9.8183  -13.6840 H   0  0  0  0  0  0  0  0  0  0  0  0
   -6.9404   12.2372  -14.0676 H   0  0  0  0  0  0  0  0  0  0  0  0
   -8.0292    9.5839   -7.2507 H   0  0  0  0  0  0  0  0  0  0  0  0
   -4.8756    8.7823   -8.4819 H   0  0  0  0  0  0  0  0  0  0  0  0
   -2.6674    9.7693   -8.0332 H   0  0  0  0  0  0  0  0  0  0  0  0
   -4.5421   13.2987   -6.4789 H   0  0  0  0  0  0  0  0  0  0  0  0
   -6.7619   12.3053   -6.9110 H   0  0  0  0  0  0  0  0  0  0  0  0
   -2.1713   14.2311   -7.1010 H   0  0  0  0  0  0  0  0  0  0  0  0
   -2.2073   13.5518   -5.4385 H   0  0  0  0  0  0  0  0  0  0  0  0
   -0.6522   10.6178   -7.5964 H   0  0  0  0  0  0  0  0  0  0  0  0
    1.4382   14.3462   -6.0082 H   0  0  0  0  0  0  0  0  0  0  0  0
    0.1696   15.4967   -6.5499 H   0  0  0  0  0  0  0  0  0  0  0  0
    0.1274   14.8336   -4.8810 H   0  0  0  0  0  0  0  0  0  0  0  0
   -6.6284   14.1271  -13.8790 H   0  0  0  0  0  0  0  0  0  0  0  0
   -6.2658   15.4268  -12.6932 H   0  0  0  0  0  0  0  0  0  0  0  0
   -4.2565   13.9474  -14.4640 H   0  0  0  0  0  0  0  0  0  0  0  0
   -4.7758   15.6607  -14.6111 H   0  0  0  0  0  0  0  0  0  0  0  0
   -3.0304   13.2488  -12.7378 H   0  0  0  0  0  0  0  0  0  0  0  0
   -2.4269   14.3849  -11.4842 H   0  0  0  0  0  0  0  0  0  0  0  0
   -4.7488   14.7031  -10.6438 H   0  0  0  0  0  0  0  0  0  0  0  0
   -4.2928   12.9662  -10.6013 H   0  0  0  0  0  0  0  0  0  0  0  0
  1  2  1  0  0  0  0
  1  4  2  0  0  0  0
  1 11  1  0  0  0  0
  2  6  2  0  0  0  0
  3  4  1  0  0  0  0
  3  5  1  0  0  0  0
  5  6  1  0  0  0  0
  5  9  2  0  0  0  0
  6  7  1  0  0  0  0
  7  8  2  0  0  0  0
  7 10  1  0  0  0  0
  8  9  1  0  0  0  0
 10 12  2  0  0  0  0
 11 24  1  0  0  0  0
 11 28  1  0  0  0  0
 12 13  1  0  0  0  0
 12 17  1  0  0  0  0
 13 14  2  0  0  0  0
 14 15  1  0  0  0  0
 15 16  1  0  0  0  0
 15 18  2  0  0  0  0
 16 17  2  0  0  0  0
 18 19  1  0  0  0  0
 18 22  1  0  0  0  0
 19 20  1  0  0  0  0
 20 21  1  0  0  0  0
 20 23  1  0  0  0  0
 21 22  2  0  0  0  0
 24 25  1  0  0  0  0
 25 26  1  0  0  0  0
 26 27  1  0  0  0  0
 27 28  1  0  0  0  0
  2 29  1  0  0  0  0
  3 30  1  0  0  0  0
  3 31  1  0  0  0  0
  4 32  1  0  0  0  0
 10 33  1  0  0  0  0
 13 34  1  0  0  0  0
 14 35  1  0  0  0  0
 16 36  1  0  0  0  0
 17 37  1  0  0  0  0
 19 38  1  0  0  0  0
 19 39  1  0  0  0  0
 22 40  1  0  0  0  0
 23 41  1  0  0  0  0
 23 42  1  0  0  0  0
 23 43  1  0  0  0  0
 24 44  1  0  0  0  0
 24 45  1  0  0  0  0
 25 46  1  0  0  0  0
 25 47  1  0  0  0  0
 27 48  1  0  0  0  0
 27 49  1  0  0  0  0
 28 50  1  0  0  0  0
 28 51  1  0  0  0  0
M  END
> <Name>
28

> <IC50[uM]>
30

$$$$
28
  -OEChem-05192314333D
 Structure written by MMmdl.
 51 55  0     1  0  0  0  0  0999 V2000
   -6.4084   12.3297  -11.9887 C   0  0  0  0  0  0  0  0  0  0  0  0
   -6.5165   11.7544  -10.7314 C   0  0  0  0  0  0  0  0  0  0  0  0
   -7.7418   10.5517  -13.0215 C   0  0  0  0  0  0  0  0  0  0  0  0
   -7.0245   11.7463  -13.1093 C   0  0  0  0  0  0  0  0  0  0  0  0
   -7.8268    9.9859  -11.7428 C   0  0  3  0  0  0  0  0  0  0  0  0
   -7.2396   10.5800  -10.6042 C   0  0  0  0  0  0  0  0  0  0  0  0
   -7.6095    9.7151   -9.5092 C   0  0  0  0  0  0  0  0  0  0  0  0
   -8.2849    8.7010   -9.9773 N   0  0  0  0  0  0  0  0  0  0  0  0
   -8.4373    8.8403  -11.2922 N   0  0  0  0  0  0  0  0  0  0  0  0
   -7.3311    9.8727   -8.0225 C   0  0  0  0  0  0  0  0  0  0  0  0
   -5.6734   13.4955  -12.1182 N   0  0  0  0  0  0  0  0  0  0  0  0
   -5.9616   10.4819   -7.7358 C   0  0  0  0  0  0  0  0  0  0  0  0
   -4.8034    9.7678   -8.0459 C   0  0  0  0  0  0  0  0  0  0  0  0
   -3.5615   10.3255   -7.7934 C   0  0  0  0  0  0  0  0  0  0  0  0
   -3.4526   11.6006   -7.2315 C   0  0  0  0  0  0  0  0  0  0  0  0
   -4.6161   12.3136   -6.9153 C   0  0  0  0  0  0  0  0  0  0  0  0
   -5.8662   11.7565   -7.1617 C   0  0  0  0  0  0  0  0  0  0  0  0
   -2.1079   12.1894   -6.9634 C   0  0  0  0  0  0  0  0  0  0  0  0
   -1.7834   13.4363   -6.4469 C   0  0  0  0  0  0  0  0  0  0  0  0
   -0.4443   13.4911   -6.3955 N   0  0  3  0  0  0  0  0  0  0  0  0
    0.1636   12.4174   -6.8067 N   0  0  0  0  0  0  0  0  0  0  0  0
   -0.8107   11.6018   -7.1804 C   0  0  0  0  0  0  0  0  0  0  0  0
    0.3735   14.6113   -5.9298 C   0  0  0  0  0  0  0  0  0  0  0  0
   -5.8857   14.5071  -13.1620 C   0  0  0  0  0  0  0  0  0  0  0  0
   -4.6042   14.8313  -13.9092 C   0  0  0  0  0  0  0  0  0  0  0  0
   -3.6374   15.2080  -12.9343 O   0  0  0  0  0  0  0  0  0  0  0  0
   -3.2854   14.1223  -12.1198 C   0  0  0  0  0  0  0  0  0  0  0  0
   -4.5109   13.8217  -11.2574 C   0  0  0  0  0  0  0  0  0  0  0  0
   -6.0481   12.2112   -9.8721 H   0  0  0  0  0  0  0  0  0  0  0  0
   -8.2018   10.0931  -13.8843 H   0  0  0  0  0  0  0  0  0  0  0  0
   -6.9404   12.2372  -14.0676 H   0  0  0  0  0  0  0  0  0  0  0  0
   -6.9008    9.4219  -11.9286 H   0  0  0  0  0  0  0  0  0  0  0  0
   -8.0292    9.5839   -7.2507 H   0  0  0  0  0  0  0  0  0  0  0  0
   -4.8756    8.7823   -8.4819 H   0  0  0  0  0  0  0  0  0  0  0  0
   -2.6674    9.7693   -8.0332 H   0  0  0  0  0  0  0  0  0  0  0  0
   -4.5421   13.2987   -6.4789 H   0  0  0  0  0  0  0  0  0  0  0  0
   -6.7619   12.3053   -6.9110 H   0  0  0  0  0  0  0  0  0  0  0  0
   -2.1713   14.2311   -7.1010 H   0  0  0  0  0  0  0  0  0  0  0  0
   -2.2073   13.5518   -5.4385 H   0  0  0  0  0  0  0  0  0  0  0  0
   -0.6522   10.6178   -7.5964 H   0  0  0  0  0  0  0  0  0  0  0  0
    1.4382   14.3462   -6.0082 H   0  0  0  0  0  0  0  0  0  0  0  0
    0.1696   15.4967   -6.5499 H   0  0  0  0  0  0  0  0  0  0  0  0
    0.1274   14.8336   -4.8810 H   0  0  0  0  0  0  0  0  0  0  0  0
   -6.6284   14.1271  -13.8790 H   0  0  0  0  0  0  0  0  0  0  0  0
   -6.2658   15.4268  -12.6932 H   0  0  0  0  0  0  0  0  0  0  0  0
   -4.2565   13.9474  -14.4640 H   0  0  0  0  0  0  0  0  0  0  0  0
   -4.7758   15.6607  -14.6111 H   0  0  0  0  0  0  0  0  0  0  0  0
   -3.0304   13.2488  -12.7378 H   0  0  0  0  0  0  0  0  0  0  0  0
   -2.4269   14.3849  -11.4842 H   0  0  0  0  0  0  0  0  0  0  0  0
   -4.7488   14.7031  -10.6438 H   0  0  0  0  0  0  0  0  0  0  0  0
   -4.2928   12.9662  -10.6013 H   0  0  0  0  0  0  0  0  0  0  0  0
  1  2  2  0  0  0  0
  1  4  1  0  0  0  0
  1 11  1  0  0  0  0
  2  6  1  0  0  0  0
  3  4  2  0  0  0  0
  3  5  1  0  0  0  0
  5  6  1  0  0  0  0
  5  9  1  0  0  0  0
  6  7  2  0  0  0  0
  7  8  1  0  0  0  0
  7 10  1  0  0  0  0
  8  9  2  0  0  0  0
 10 12  2  0  0  0  0
 11 24  1  0  0  0  0
 11 28  1  0  0  0  0
 12 13  1  0  0  0  0
 12 17  1  0  0  0  0
 13 14  2  0  0  0  0
 14 15  1  0  0  0  0
 15 16  1  0  0  0  0
 15 18  2  0  0  0  0
 16 17  2  0  0  0  0
 18 19  1  0  0  0  0
 18 22  1  0  0  0  0
 19 20  1  0  0  0  0
 20 21  1  0  0  0  0
 20 23  1  0  0  0  0
 21 22  2  0  0  0  0
 24 25  1  0  0  0  0
 25 26  1  0  0  0  0
 26 27  1  0  0  0  0
 27 28  1  0  0  0  0
  2 29  1  0  0  0  0
  3 30  1  0  0  0  0
  4 31  1  0  0  0  0
  5 32  1  0  0  0  0
 10 33  1  0  0  0  0
 13 34  1  0  0  0  0
 14 35  1  0  0  0  0
 16 36  1  0  0  0  0
 17 37  1  0  0  0  0
 19 38  1  0  0  0  0
 19 39  1  0  0  0  0
 22 40  1  0  0  0  0
 23 41  1  0  0  0  0
 23 42  1  0  0  0  0
 23 43  1  0  0  0  0
 24 44  1  0  0  0  0
 24 45  1  0  0  0  0
 25 46  1  0  0  0  0
 25 47  1  0  0  0  0
 27 48  1  0  0  0  0
 27 49  1  0  0  0  0
 28 50  1  0  0  0  0
 28 51  1  0  0  0  0
M  END
> <Name>
28

> <IC50[uM]>
30

$$$$
28
  -OEChem-05192314333D
 Structure written by MMmdl.
 51 55  0     1  0  0  0  0  0999 V2000
   -6.4084   12.3297  -11.9887 C   0  0  0  0  0  0  0  0  0  0  0  0
   -6.5165   11.7544  -10.7314 C   0  0  0  0  0  0  0  0  0  0  0  0
   -7.7418   10.5517  -13.0215 C   0  0  0  0  0  0  0  0  0  0  0  0
   -7.0245   11.7463  -13.1093 C   0  0  0  0  0  0  0  0  0  0  0  0
   -7.8268    9.9859  -11.7428 C   0  0  0  0  0  0  0  0  0  0  0  0
   -7.2396   10.5800  -10.6042 C   0  0  0  0  0  0  0  0  0  0  0  0
   -7.6095    9.7151   -9.5092 C   0  0  0  0  0  0  0  0  0  0  0  0
   -8.2849    8.7010   -9.9773 N   0  0  0  0  0  0  0  0  0  0  0  0
   -8.4373    8.8403  -11.2922 N   0  0  0  0  0  0  0  0  0  0  0  0
   -7.3311    9.8727   -8.0225 C   0  0  0  0  0  0  0  0  0  0  0  0
   -5.6734   13.4955  -12.1182 N   0  0  0  0  0  0  0  0  0  0  0  0
   -5.9616   10.4819   -7.7358 C   0  0  0  0  0  0  0  0  0  0  0  0
   -4.8034    9.7678   -8.0459 C   0  0  0  0  0  0  0  0  0  0  0  0
   -3.5615   10.3255   -7.7934 C   0  0  0  0  0  0  0  0  0  0  0  0
   -3.4526   11.6006   -7.2315 C   0  0  0  0  0  0  0  0  0  0  0  0
   -4.6161   12.3136   -6.9153 C   0  0  0  0  0  0  0  0  0  0  0  0
   -5.8662   11.7565   -7.1617 C   0  0  0  0  0  0  0  0  0  0  0  0
   -2.1079   12.1894   -6.9634 C   0  0  0  0  0  0  0  0  0  0  0  0
   -1.7834   13.4363   -6.4469 C   0  0  0  0  0  0  0  0  0  0  0  0
   -0.4443   13.4911   -6.3955 N   0  0  3  0  0  0  0  0  0  0  0  0
    0.1636   12.4174   -6.8067 N   0  0  0  0  0  0  0  0  0  0  0  0
   -0.8107   11.6018   -7.1804 C   0  0  0  0  0  0  0  0  0  0  0  0
    0.3735   14.6113   -5.9298 C   0  0  0  0  0  0  0  0  0  0  0  0
   -5.8857   14.5071  -13.1620 C   0  0  0  0  0  0  0  0  0  0  0  0
   -4.6042   14.8313  -13.9092 C   0  0  0  0  0  0  0  0  0  0  0  0
   -3.6374   15.2080  -12.9343 O   0  0  0  0  0  0  0  0  0  0  0  0
   -3.2854   14.1223  -12.1198 C   0  0  0  0  0  0  0  0  0  0  0  0
   -4.5109   13.8217  -11.2574 C   0  0  0  0  0  0  0  0  0  0  0  0
   -6.0481   12.2112   -9.8721 H   0  0  0  0  0  0  0  0  0  0  0  0
   -8.2018   10.0931  -13.8843 H   0  0  0  0  0  0  0  0  0  0  0  0
   -7.7253   12.4980  -13.5014 H   0  0  0  0  0  0  0  0  0  0  0  0
   -6.2248   11.5719  -13.8442 H   0  0  0  0  0  0  0  0  0  0  0  0
   -8.0292    9.5839   -7.2507 H   0  0  0  0  0  0  0  0  0  0  0  0
   -4.8756    8.7823   -8.4819 H   0  0  0  0  0  0  0  0  0  0  0  0
   -2.6674    9.7693   -8.0332 H   0  0  0  0  0  0  0  0  0  0  0  0
   -4.5421   13.2987   -6.4789 H   0  0  0  0  0  0  0  0  0  0  0  0
   -6.7619   12.3053   -6.9110 H   0  0  0  0  0  0  0  0  0  0  0  0
   -2.1713   14.2311   -7.1010 H   0  0  0  0  0  0  0  0  0  0  0  0
   -2.2073   13.5518   -5.4385 H   0  0  0  0  0  0  0  0  0  0  0  0
   -0.6522   10.6178   -7.5964 H   0  0  0  0  0  0  0  0  0  0  0  0
    1.4382   14.3462   -6.0082 H   0  0  0  0  0  0  0  0  0  0  0  0
    0.1696   15.4967   -6.5499 H   0  0  0  0  0  0  0  0  0  0  0  0
    0.1274   14.8336   -4.8810 H   0  0  0  0  0  0  0  0  0  0  0  0
   -6.6284   14.1271  -13.8790 H   0  0  0  0  0  0  0  0  0  0  0  0
   -6.2658   15.4268  -12.6932 H   0  0  0  0  0  0  0  0  0  0  0  0
   -4.2565   13.9474  -14.4640 H   0  0  0  0  0  0  0  0  0  0  0  0
   -4.7758   15.6607  -14.6111 H   0  0  0  0  0  0  0  0  0  0  0  0
   -3.0304   13.2488  -12.7378 H   0  0  0  0  0  0  0  0  0  0  0  0
   -2.4269   14.3849  -11.4842 H   0  0  0  0  0  0  0  0  0  0  0  0
   -4.7488   14.7031  -10.6438 H   0  0  0  0  0  0  0  0  0  0  0  0
   -4.2928   12.9662  -10.6013 H   0  0  0  0  0  0  0  0  0  0  0  0
  1  2  2  0  0  0  0
  1  4  1  0  0  0  0
  1 11  1  0  0  0  0
  2  6  1  0  0  0  0
  3  4  1  0  0  0  0
  3  5  2  0  0  0  0
  5  6  1  0  0  0  0
  5  9  1  0  0  0  0
  6  7  2  0  0  0  0
  7  8  1  0  0  0  0
  7 10  1  0  0  0  0
  8  9  2  0  0  0  0
 10 12  2  0  0  0  0
 11 24  1  0  0  0  0
 11 28  1  0  0  0  0
 12 13  1  0  0  0  0
 12 17  1  0  0  0  0
 13 14  2  0  0  0  0
 14 15  1  0  0  0  0
 15 16  1  0  0  0  0
 15 18  2  0  0  0  0
 16 17  2  0  0  0  0
 18 19  1  0  0  0  0
 18 22  1  0  0  0  0
 19 20  1  0  0  0  0
 20 21  1  0  0  0  0
 20 23  1  0  0  0  0
 21 22  2  0  0  0  0
 24 25  1  0  0  0  0
 25 26  1  0  0  0  0
 26 27  1  0  0  0  0
 27 28  1  0  0  0  0
  2 29  1  0  0  0  0
  3 30  1  0  0  0  0
  4 31  1  0  0  0  0
  4 32  1  0  0  0  0
 10 33  1  0  0  0  0
 13 34  1  0  0  0  0
 14 35  1  0  0  0  0
 16 36  1  0  0  0  0
 17 37  1  0  0  0  0
 19 38  1  0  0  0  0
 19 39  1  0  0  0  0
 22 40  1  0  0  0  0
 23 41  1  0  0  0  0
 23 42  1  0  0  0  0
 23 43  1  0  0  0  0
 24 44  1  0  0  0  0
 24 45  1  0  0  0  0
 25 46  1  0  0  0  0
 25 47  1  0  0  0  0
 27 48  1  0  0  0  0
 27 49  1  0  0  0  0
 28 50  1  0  0  0  0
 28 51  1  0  0  0  0
M  END
> <Name>
28

> <IC50[uM]>
30

$$$$
28
  -OEChem-05192314333D
 Structure written by MMmdl.
 51 55  0     1  0  0  0  0  0999 V2000
   -6.4084   12.3297  -11.9887 C   0  0  0  0  0  0  0  0  0  0  0  0
   -6.5165   11.7544  -10.7314 C   0  0  0  0  0  0  0  0  0  0  0  0
   -7.7418   10.5517  -13.0215 C   0  0  0  0  0  0  0  0  0  0  0  0
   -7.0245   11.7463  -13.1093 C   0  0  0  0  0  0  0  0  0  0  0  0
   -7.8268    9.9859  -11.7428 C   0  0  0  0  0  0  0  0  0  0  0  0
   -7.2396   10.5800  -10.6042 C   0  0  0  0  0  0  0  0  0  0  0  0
   -7.6095    9.7151   -9.5092 C   0  0  0  0  0  0  0  0  0  0  0  0
   -8.2849    8.7010   -9.9773 N   0  0  0  0  0  0  0  0  0  0  0  0
   -8.4373    8.8403  -11.2922 N   0  0  0  0  0  0  0  0  0  0  0  0
   -7.3311    9.8727   -8.0225 C   0  0  0  0  0  0  0  0  0  0  0  0
   -5.6734   13.4955  -12.1182 N   0  0  0  0  0  0  0  0  0  0  0  0
   -5.9616   10.4819   -7.7358 C   0  0  0  0  0  0  0  0  0  0  0  0
   -4.8034    9.7678   -8.0459 C   0  0  0  0  0  0  0  0  0  0  0  0
   -3.5615   10.3255   -7.7934 C   0  0  0  0  0  0  0  0  0  0  0  0
   -3.4526   11.6006   -7.2315 C   0  0  0  0  0  0  0  0  0  0  0  0
   -4.6161   12.3136   -6.9153 C   0  0  0  0  0  0  0  0  0  0  0  0
   -5.8662   11.7565   -7.1617 C   0  0  0  0  0  0  0  0  0  0  0  0
   -2.1079   12.1894   -6.9634 C   0  0  0  0  0  0  0  0  0  0  0  0
   -1.7834   13.4363   -6.4469 C   0  0  0  0  0  0  0  0  0  0  0  0
   -0.4443   13.4911   -6.3955 N   0  0  3  0  0  0  0  0  0  0  0  0
    0.1636   12.4174   -6.8067 N   0  0  0  0  0  0  0  0  0  0  0  0
   -0.8107   11.6018   -7.1804 C   0  0  0  0  0  0  0  0  0  0  0  0
    0.3735   14.6113   -5.9298 C   0  0  0  0  0  0  0  0  0  0  0  0
   -5.8857   14.5071  -13.1620 C   0  0  0  0  0  0  0  0  0  0  0  0
   -4.6042   14.8313  -13.9092 C   0  0  0  0  0  0  0  0  0  0  0  0
   -3.6374   15.2080  -12.9343 O   0  0  0  0  0  0  0  0  0  0  0  0
   -3.2854   14.1223  -12.1198 C   0  0  0  0  0  0  0  0  0  0  0  0
   -4.5109   13.8217  -11.2574 C   0  0  0  0  0  0  0  0  0  0  0  0
   -5.4950   11.5470  -10.3798 H   0  0  0  0  0  0  0  0  0  0  0  0
   -6.9870   12.4990  -10.0725 H   0  0  0  0  0  0  0  0  0  0  0  0
   -8.2018   10.0931  -13.8843 H   0  0  0  0  0  0  0  0  0  0  0  0
   -6.9404   12.2372  -14.0676 H   0  0  0  0  0  0  0  0  0  0  0  0
   -8.0292    9.5839   -7.2507 H   0  0  0  0  0  0  0  0  0  0  0  0
   -4.8756    8.7823   -8.4819 H   0  0  0  0  0  0  0  0  0  0  0  0
   -2.6674    9.7693   -8.0332 H   0  0  0  0  0  0  0  0  0  0  0  0
   -4.5421   13.2987   -6.4789 H   0  0  0  0  0  0  0  0  0  0  0  0
   -6.7619   12.3053   -6.9110 H   0  0  0  0  0  0  0  0  0  0  0  0
   -2.1713   14.2311   -7.1010 H   0  0  0  0  0  0  0  0  0  0  0  0
   -2.2073   13.5518   -5.4385 H   0  0  0  0  0  0  0  0  0  0  0  0
   -0.6522   10.6178   -7.5964 H   0  0  0  0  0  0  0  0  0  0  0  0
    1.4382   14.3462   -6.0082 H   0  0  0  0  0  0  0  0  0  0  0  0
    0.1696   15.4967   -6.5499 H   0  0  0  0  0  0  0  0  0  0  0  0
    0.1274   14.8336   -4.8810 H   0  0  0  0  0  0  0  0  0  0  0  0
   -6.6284   14.1271  -13.8790 H   0  0  0  0  0  0  0  0  0  0  0  0
   -6.2658   15.4268  -12.6932 H   0  0  0  0  0  0  0  0  0  0  0  0
   -4.2565   13.9474  -14.4640 H   0  0  0  0  0  0  0  0  0  0  0  0
   -4.7758   15.6607  -14.6111 H   0  0  0  0  0  0  0  0  0  0  0  0
   -3.0304   13.2488  -12.7378 H   0  0  0  0  0  0  0  0  0  0  0  0
   -2.4269   14.3849  -11.4842 H   0  0  0  0  0  0  0  0  0  0  0  0
   -4.7488   14.7031  -10.6438 H   0  0  0  0  0  0  0  0  0  0  0  0
   -4.2928   12.9662  -10.6013 H   0  0  0  0  0  0  0  0  0  0  0  0
  1  2  1  0  0  0  0
  1  4  2  0  0  0  0
  1 11  1  0  0  0  0
  2  6  1  0  0  0  0
  3  4  1  0  0  0  0
  3  5  2  0  0  0  0
  5  6  1  0  0  0  0
  5  9  1  0  0  0  0
  6  7  2  0  0  0  0
  7  8  1  0  0  0  0
  7 10  1  0  0  0  0
  8  9  2  0  0  0  0
 10 12  2  0  0  0  0
 11 24  1  0  0  0  0
 11 28  1  0  0  0  0
 12 13  1  0  0  0  0
 12 17  1  0  0  0  0
 13 14  2  0  0  0  0
 14 15  1  0  0  0  0
 15 16  1  0  0  0  0
 15 18  2  0  0  0  0
 16 17  2  0  0  0  0
 18 19  1  0  0  0  0
 18 22  1  0  0  0  0
 19 20  1  0  0  0  0
 20 21  1  0  0  0  0
 20 23  1  0  0  0  0
 21 22  2  0  0  0  0
 24 25  1  0  0  0  0
 25 26  1  0  0  0  0
 26 27  1  0  0  0  0
 27 28  1  0  0  0  0
  2 29  1  0  0  0  0
  2 30  1  0  0  0  0
  3 31  1  0  0  0  0
  4 32  1  0  0  0  0
 10 33  1  0  0  0  0
 13 34  1  0  0  0  0
 14 35  1  0  0  0  0
 16 36  1  0  0  0  0
 17 37  1  0  0  0  0
 19 38  1  0  0  0  0
 19 39  1  0  0  0  0
 22 40  1  0  0  0  0
 23 41  1  0  0  0  0
 23 42  1  0  0  0  0
 23 43  1  0  0  0  0
 24 44  1  0  0  0  0
 24 45  1  0  0  0  0
 25 46  1  0  0  0  0
 25 47  1  0  0  0  0
 27 48  1  0  0  0  0
 27 49  1  0  0  0  0
 28 50  1  0  0  0  0
 28 51  1  0  0  0  0
M  END
> <Name>
28

> <IC50[uM]>
30

$$$$
28
  -OEChem-05192314333D
 Structure written by MMmdl.
 51 55  0     1  0  0  0  0  0999 V2000
   -6.4084   12.3297  -11.9887 C   0  0  0  0  0  0  0  0  0  0  0  0
   -6.5165   11.7544  -10.7314 C   0  0  0  0  0  0  0  0  0  0  0  0
   -7.7418   10.5517  -13.0215 C   0  0  0  0  0  0  0  0  0  0  0  0
   -7.0245   11.7463  -13.1093 C   0  0  0  0  0  0  0  0  0  0  0  0
   -7.8268    9.9859  -11.7428 C   0  0  0  0  0  0  0  0  0  0  0  0
   -7.2396   10.5800  -10.6042 C   0  0  3  0  0  0  0  0  0  0  0  0
   -7.6095    9.7151   -9.5092 C   0  0  0  0  0  0  0  0  0  0  0  0
   -8.2849    8.7010   -9.9773 N   0  0  0  0  0  0  0  0  0  0  0  0
   -8.4373    8.8403  -11.2922 N   0  0  0  0  0  0  0  0  0  0  0  0
   -7.3311    9.8727   -8.0225 C   0  0  0  0  0  0  0  0  0  0  0  0
   -5.6734   13.4955  -12.1182 N   0  0  0  0  0  0  0  0  0  0  0  0
   -5.9616   10.4819   -7.7358 C   0  0  0  0  0  0  0  0  0  0  0  0
   -4.8034    9.7678   -8.0459 C   0  0  0  0  0  0  0  0  0  0  0  0
   -3.5615   10.3255   -7.7934 C   0  0  0  0  0  0  0  0  0  0  0  0
   -3.4526   11.6006   -7.2315 C   0  0  0  0  0  0  0  0  0  0  0  0
   -4.6161   12.3136   -6.9153 C   0  0  0  0  0  0  0  0  0  0  0  0
   -5.8662   11.7565   -7.1617 C   0  0  0  0  0  0  0  0  0  0  0  0
   -2.1079   12.1894   -6.9634 C   0  0  0  0  0  0  0  0  0  0  0  0
   -1.7834   13.4363   -6.4469 C   0  0  0  0  0  0  0  0  0  0  0  0
   -0.4443   13.4911   -6.3955 N   0  0  0  0  0  0  0  0  0  0  0  0
    0.1636   12.4174   -6.8067 N   0  0  0  0  0  0  0  0  0  0  0  0
   -0.8107   11.6018   -7.1804 C   0  0  0  0  0  0  0  0  0  0  0  0
    0.3735   14.6113   -5.9298 C   0  0  0  0  0  0  0  0  0  0  0  0
   -5.8857   14.5071  -13.1620 C   0  0  0  0  0  0  0  0  0  0  0  0
   -4.6042   14.8313  -13.9092 C   0  0  0  0  0  0  0  0  0  0  0  0
   -3.6374   15.2080  -12.9343 O   0  0  0  0  0  0  0  0  0  0  0  0
   -3.2854   14.1223  -12.1198 C   0  0  0  0  0  0  0  0  0  0  0  0
   -4.5109   13.8217  -11.2574 C   0  0  0  0  0  0  0  0  0  0  0  0
   -6.0481   12.2112   -9.8721 H   0  0  0  0  0  0  0  0  0  0  0  0
   -8.2018   10.0931  -13.8843 H   0  0  0  0  0  0  0  0  0  0  0  0
   -6.9404   12.2372  -14.0676 H   0  0  0  0  0  0  0  0  0  0  0  0
   -6.3233    9.9928  -10.7645 H   0  0  0  0  0  0  0  0  0  0  0  0
   -8.0292    9.5839   -7.2507 H   0  0  0  0  0  0  0  0  0  0  0  0
   -4.8756    8.7823   -8.4819 H   0  0  0  0  0  0  0  0  0  0  0  0
   -2.6674    9.7693   -8.0332 H   0  0  0  0  0  0  0  0  0  0  0  0
   -3.4498   12.0463   -8.2372 H   0  0  0  0  0  0  0  0  0  0  0  0
   -4.5421   13.2987   -6.4789 H   0  0  0  0  0  0  0  0  0  0  0  0
   -6.7619   12.3053   -6.9110 H   0  0  0  0  0  0  0  0  0  0  0  0
   -2.4737   14.2103   -6.1456 H   0  0  0  0  0  0  0  0  0  0  0  0
   -0.6522   10.6178   -7.5964 H   0  0  0  0  0  0  0  0  0  0  0  0
    1.4382   14.3462   -6.0082 H   0  0  0  0  0  0  0  0  0  0  0  0
    0.1696   15.4967   -6.5499 H   0  0  0  0  0  0  0  0  0  0  0  0
    0.1274   14.8336   -4.8810 H   0  0  0  0  0  0  0  0  0  0  0  0
   -6.6284   14.1271  -13.8790 H   0  0  0  0  0  0  0  0  0  0  0  0
   -6.2658   15.4268  -12.6932 H   0  0  0  0  0  0  0  0  0  0  0  0
   -4.2565   13.9474  -14.4640 H   0  0  0  0  0  0  0  0  0  0  0  0
   -4.7758   15.6607  -14.6111 H   0  0  0  0  0  0  0  0  0  0  0  0
   -3.0304   13.2488  -12.7378 H   0  0  0  0  0  0  0  0  0  0  0  0
   -2.4269   14.3849  -11.4842 H   0  0  0  0  0  0  0  0  0  0  0  0
   -4.7488   14.7031  -10.6438 H   0  0  0  0  0  0  0  0  0  0  0  0
   -4.2928   12.9662  -10.6013 H   0  0  0  0  0  0  0  0  0  0  0  0
  1  2  2  0  0  0  0
  1  4  1  0  0  0  0
  1 11  1  0  0  0  0
  2  6  1  0  0  0  0
  3  4  2  0  0  0  0
  3  5  1  0  0  0  0
  5  6  1  0  0  0  0
  5  9  2  0  0  0  0
  6  7  1  0  0  0  0
  7  8  2  0  0  0  0
  7 10  1  0  0  0  0
  8  9  1  0  0  0  0
 10 12  2  0  0  0  0
 11 24  1  0  0  0  0
 11 28  1  0  0  0  0
 12 13  1  0  0  0  0
 12 17  1  0  0  0  0
 13 14  2  0  0  0  0
 14 15  1  0  0  0  0
 15 16  1  0  0  0  0
 15 18  1  0  0  0  0
 16 17  2  0  0  0  0
 18 19  2  0  0  0  0
 18 22  1  0  0  0  0
 19 20  1  0  0  0  0
 20 21  1  0  0  0  0
 20 23  1  0  0  0  0
 21 22  2  0  0  0  0
 24 25  1  0  0  0  0
 25 26  1  0  0  0  0
 26 27  1  0  0  0  0
 27 28  1  0  0  0  0
  2 29  1  0  0  0  0
  3 30  1  0  0  0  0
  4 31  1  0  0  0  0
  6 32  1  0  0  0  0
 10 33  1  0  0  0  0
 13 34  1  0  0  0  0
 14 35  1  0  0  0  0
 15 36  1  0  0  0  0
 16 37  1  0  0  0  0
 17 38  1  0  0  0  0
 19 39  1  0  0  0  0
 22 40  1  0  0  0  0
 23 41  1  0  0  0  0
 23 42  1  0  0  0  0
 23 43  1  0  0  0  0
 24 44  1  0  0  0  0
 24 45  1  0  0  0  0
 25 46  1  0  0  0  0
 25 47  1  0  0  0  0
 27 48  1  0  0  0  0
 27 49  1  0  0  0  0
 28 50  1  0  0  0  0
 28 51  1  0  0  0  0
M  END
> <Name>
28

> <IC50[uM]>
30

$$$$
28
  -OEChem-05192314333D
 Structure written by MMmdl.
 51 55  0     1  0  0  0  0  0999 V2000
   -6.4084   12.3297  -11.9887 C   0  0  3  0  0  0  0  0  0  0  0  0
   -6.5165   11.7544  -10.7314 C   0  0  0  0  0  0  0  0  0  0  0  0
   -7.7418   10.5517  -13.0215 C   0  0  0  0  0  0  0  0  0  0  0  0
   -7.0245   11.7463  -13.1093 C   0  0  0  0  0  0  0  0  0  0  0  0
   -7.8268    9.9859  -11.7428 C   0  0  0  0  0  0  0  0  0  0  0  0
   -7.2396   10.5800  -10.6042 C   0  0  0  0  0  0  0  0  0  0  0  0
   -7.6095    9.7151   -9.5092 C   0  0  0  0  0  0  0  0  0  0  0  0
   -8.2849    8.7010   -9.9773 N   0  0  0  0  0  0  0  0  0  0  0  0
   -8.4373    8.8403  -11.2922 N   0  0  0  0  0  0  0  0  0  0  0  0
   -7.3311    9.8727   -8.0225 C   0  0  0  0  0  0  0  0  0  0  0  0
   -5.6734   13.4955  -12.1182 N   0  0  0  0  0  0  0  0  0  0  0  0
   -5.9616   10.4819   -7.7358 C   0  0  0  0  0  0  0  0  0  0  0  0
   -4.8034    9.7678   -8.0459 C   0  0  0  0  0  0  0  0  0  0  0  0
   -3.5615   10.3255   -7.7934 C   0  0  0  0  0  0  0  0  0  0  0  0
   -3.4526   11.6006   -7.2315 C   0  0  0  0  0  0  0  0  0  0  0  0
   -4.6161   12.3136   -6.9153 C   0  0  0  0  0  0  0  0  0  0  0  0
   -5.8662   11.7565   -7.1617 C   0  0  0  0  0  0  0  0  0  0  0  0
   -2.1079   12.1894   -6.9634 C   0  0  0  0  0  0  0  0  0  0  0  0
   -1.7834   13.4363   -6.4469 C   0  0  0  0  0  0  0  0  0  0  0  0
   -0.4443   13.4911   -6.3955 N   0  0  0  0  0  0  0  0  0  0  0  0
    0.1636   12.4174   -6.8067 N   0  0  0  0  0  0  0  0  0  0  0  0
   -0.8107   11.6018   -7.1804 C   0  0  0  0  0  0  0  0  0  0  0  0
    0.3735   14.6113   -5.9298 C   0  0  0  0  0  0  0  0  0  0  0  0
   -5.8857   14.5071  -13.1620 C   0  0  0  0  0  0  0  0  0  0  0  0
   -4.6042   14.8313  -13.9092 C   0  0  0  0  0  0  0  0  0  0  0  0
   -3.6374   15.2080  -12.9343 O   0  0  0  0  0  0  0  0  0  0  0  0
   -3.2854   14.1223  -12.1198 C   0  0  0  0  0  0  0  0  0  0  0  0
   -4.5109   13.8217  -11.2574 C   0  0  0  0  0  0  0  0  0  0  0  0
   -7.3155   12.9217  -11.7969 H   0  0  0  0  0  0  0  0  0  0  0  0
   -6.0481   12.2112   -9.8721 H   0  0  0  0  0  0  0  0  0  0  0  0
   -8.2018   10.0931  -13.8843 H   0  0  0  0  0  0  0  0  0  0  0  0
   -6.9404   12.2372  -14.0676 H   0  0  0  0  0  0  0  0  0  0  0  0
   -8.0292    9.5839   -7.2507 H   0  0  0  0  0  0  0  0  0  0  0  0
   -4.8756    8.7823   -8.4819 H   0  0  0  0  0  0  0  0  0  0  0  0
   -2.6674    9.7693   -8.0332 H   0  0  0  0  0  0  0  0  0  0  0  0
   -3.4498   12.0463   -8.2372 H   0  0  0  0  0  0  0  0  0  0  0  0
   -4.5421   13.2987   -6.4789 H   0  0  0  0  0  0  0  0  0  0  0  0
   -6.7619   12.3053   -6.9110 H   0  0  0  0  0  0  0  0  0  0  0  0
   -2.4737   14.2103   -6.1456 H   0  0  0  0  0  0  0  0  0  0  0  0
   -0.6522   10.6178   -7.5964 H   0  0  0  0  0  0  0  0  0  0  0  0
    1.4382   14.3462   -6.0082 H   0  0  0  0  0  0  0  0  0  0  0  0
    0.1696   15.4967   -6.5499 H   0  0  0  0  0  0  0  0  0  0  0  0
    0.1274   14.8336   -4.8810 H   0  0  0  0  0  0  0  0  0  0  0  0
   -6.6284   14.1271  -13.8790 H   0  0  0  0  0  0  0  0  0  0  0  0
   -6.2658   15.4268  -12.6932 H   0  0  0  0  0  0  0  0  0  0  0  0
   -4.2565   13.9474  -14.4640 H   0  0  0  0  0  0  0  0  0  0  0  0
   -4.7758   15.6607  -14.6111 H   0  0  0  0  0  0  0  0  0  0  0  0
   -3.0304   13.2488  -12.7378 H   0  0  0  0  0  0  0  0  0  0  0  0
   -2.4269   14.3849  -11.4842 H   0  0  0  0  0  0  0  0  0  0  0  0
   -4.7488   14.7031  -10.6438 H   0  0  0  0  0  0  0  0  0  0  0  0
   -4.2928   12.9662  -10.6013 H   0  0  0  0  0  0  0  0  0  0  0  0
  1  2  1  0  0  0  0
  1  4  1  0  0  0  0
  1 11  1  0  0  0  0
  2  6  2  0  0  0  0
  3  4  2  0  0  0  0
  3  5  1  0  0  0  0
  5  6  1  0  0  0  0
  5  9  2  0  0  0  0
  6  7  1  0  0  0  0
  7  8  2  0  0  0  0
  7 10  1  0  0  0  0
  8  9  1  0  0  0  0
 10 12  2  0  0  0  0
 11 24  1  0  0  0  0
 11 28  1  0  0  0  0
 12 13  1  0  0  0  0
 12 17  1  0  0  0  0
 13 14  2  0  0  0  0
 14 15  1  0  0  0  0
 15 16  1  0  0  0  0
 15 18  1  0  0  0  0
 16 17  2  0  0  0  0
 18 19  2  0  0  0  0
 18 22  1  0  0  0  0
 19 20  1  0  0  0  0
 20 21  1  0  0  0  0
 20 23  1  0  0  0  0
 21 22  2  0  0  0  0
 24 25  1  0  0  0  0
 25 26  1  0  0  0  0
 26 27  1  0  0  0  0
 27 28  1  0  0  0  0
  1 29  1  0  0  0  0
  2 30  1  0  0  0  0
  3 31  1  0  0  0  0
  4 32  1  0  0  0  0
 10 33  1  0  0  0  0
 13 34  1  0  0  0  0
 14 35  1  0  0  0  0
 15 36  1  0  0  0  0
 16 37  1  0  0  0  0
 17 38  1  0  0  0  0
 19 39  1  0  0  0  0
 22 40  1  0  0  0  0
 23 41  1  0  0  0  0
 23 42  1  0  0  0  0
 23 43  1  0  0  0  0
 24 44  1  0  0  0  0
 24 45  1  0  0  0  0
 25 46  1  0  0  0  0
 25 47  1  0  0  0  0
 27 48  1  0  0  0  0
 27 49  1  0  0  0  0
 28 50  1  0  0  0  0
 28 51  1  0  0  0  0
M  END
> <Name>
28

> <IC50[uM]>
30

$$$$
28
  -OEChem-05192314333D
 Structure written by MMmdl.
 51 55  0     0  0  0  0  0  0999 V2000
   -6.4084   12.3297  -11.9887 C   0  0  0  0  0  0  0  0  0  0  0  0
   -6.5165   11.7544  -10.7314 C   0  0  0  0  0  0  0  0  0  0  0  0
   -7.7418   10.5517  -13.0215 C   0  0  0  0  0  0  0  0  0  0  0  0
   -7.0245   11.7463  -13.1093 C   0  0  0  0  0  0  0  0  0  0  0  0
   -7.8268    9.9859  -11.7428 C   0  0  0  0  0  0  0  0  0  0  0  0
   -7.2396   10.5800  -10.6042 C   0  0  0  0  0  0  0  0  0  0  0  0
   -7.6095    9.7151   -9.5092 C   0  0  0  0  0  0  0  0  0  0  0  0
   -8.2849    8.7010   -9.9773 N   0  0  0  0  0  0  0  0  0  0  0  0
   -8.4373    8.8403  -11.2922 N   0  0  0  0  0  0  0  0  0  0  0  0
   -7.3311    9.8727   -8.0225 C   0  0  0  0  0  0  0  0  0  0  0  0
   -5.6734   13.4955  -12.1182 N   0  0  0  0  0  0  0  0  0  0  0  0
   -5.9616   10.4819   -7.7358 C   0  0  0  0  0  0  0  0  0  0  0  0
   -4.8034    9.7678   -8.0459 C   0  0  0  0  0  0  0  0  0  0  0  0
   -3.5615   10.3255   -7.7934 C   0  0  0  0  0  0  0  0  0  0  0  0
   -3.4526   11.6006   -7.2315 C   0  0  0  0  0  0  0  0  0  0  0  0
   -4.6161   12.3136   -6.9153 C   0  0  0  0  0  0  0  0  0  0  0  0
   -5.8662   11.7565   -7.1617 C   0  0  0  0  0  0  0  0  0  0  0  0
   -2.1079   12.1894   -6.9634 C   0  0  0  0  0  0  0  0  0  0  0  0
   -1.7834   13.4363   -6.4469 C   0  0  0  0  0  0  0  0  0  0  0  0
   -0.4443   13.4911   -6.3955 N   0  0  0  0  0  0  0  0  0  0  0  0
    0.1636   12.4174   -6.8067 N   0  0  0  0  0  0  0  0  0  0  0  0
   -0.8107   11.6018   -7.1804 C   0  0  0  0  0  0  0  0  0  0  0  0
    0.3735   14.6113   -5.9298 C   0  0  0  0  0  0  0  0  0  0  0  0
   -5.8857   14.5071  -13.1620 C   0  0  0  0  0  0  0  0  0  0  0  0
   -4.6042   14.8313  -13.9092 C   0  0  0  0  0  0  0  0  0  0  0  0
   -3.6374   15.2080  -12.9343 O   0  0  0  0  0  0  0  0  0  0  0  0
   -3.2854   14.1223  -12.1198 C   0  0  0  0  0  0  0  0  0  0  0  0
   -4.5109   13.8217  -11.2574 C   0  0  0  0  0  0  0  0  0  0  0  0
   -6.0481   12.2112   -9.8721 H   0  0  0  0  0  0  0  0  0  0  0  0
   -8.7656   10.7458  -13.3738 H   0  0  0  0  0  0  0  0  0  0  0  0
   -7.2589    9.8183  -13.6840 H   0  0  0  0  0  0  0  0  0  0  0  0
   -6.9404   12.2372  -14.0676 H   0  0  0  0  0  0  0  0  0  0  0  0
   -8.0292    9.5839   -7.2507 H   0  0  0  0  0  0  0  0  0  0  0  0
   -4.8756    8.7823   -8.4819 H   0  0  0  0  0  0  0  0  0  0  0  0
   -2.6674    9.7693   -8.0332 H   0  0  0  0  0  0  0  0  0  0  0  0
   -3.4498   12.0463   -8.2372 H   0  0  0  0  0  0  0  0  0  0  0  0
   -4.5421   13.2987   -6.4789 H   0  0  0  0  0  0  0  0  0  0  0  0
   -6.7619   12.3053   -6.9110 H   0  0  0  0  0  0  0  0  0  0  0  0
   -2.4737   14.2103   -6.1456 H   0  0  0  0  0  0  0  0  0  0  0  0
   -0.6522   10.6178   -7.5964 H   0  0  0  0  0  0  0  0  0  0  0  0
    1.4382   14.3462   -6.0082 H   0  0  0  0  0  0  0  0  0  0  0  0
    0.1696   15.4967   -6.5499 H   0  0  0  0  0  0  0  0  0  0  0  0
    0.1274   14.8336   -4.8810 H   0  0  0  0  0  0  0  0  0  0  0  0
   -6.6284   14.1271  -13.8790 H   0  0  0  0  0  0  0  0  0  0  0  0
   -6.2658   15.4268  -12.6932 H   0  0  0  0  0  0  0  0  0  0  0  0
   -4.2565   13.9474  -14.4640 H   0  0  0  0  0  0  0  0  0  0  0  0
   -4.7758   15.6607  -14.6111 H   0  0  0  0  0  0  0  0  0  0  0  0
   -3.0304   13.2488  -12.7378 H   0  0  0  0  0  0  0  0  0  0  0  0
   -2.4269   14.3849  -11.4842 H   0  0  0  0  0  0  0  0  0  0  0  0
   -4.7488   14.7031  -10.6438 H   0  0  0  0  0  0  0  0  0  0  0  0
   -4.2928   12.9662  -10.6013 H   0  0  0  0  0  0  0  0  0  0  0  0
  1  2  1  0  0  0  0
  1  4  2  0  0  0  0
  1 11  1  0  0  0  0
  2  6  2  0  0  0  0
  3  4  1  0  0  0  0
  3  5  1  0  0  0  0
  5  6  1  0  0  0  0
  5  9  2  0  0  0  0
  6  7  1  0  0  0  0
  7  8  2  0  0  0  0
  7 10  1  0  0  0  0
  8  9  1  0  0  0  0
 10 12  2  0  0  0  0
 11 24  1  0  0  0  0
 11 28  1  0  0  0  0
 12 13  1  0  0  0  0
 12 17  1  0  0  0  0
 13 14  2  0  0  0  0
 14 15  1  0  0  0  0
 15 16  1  0  0  0  0
 15 18  1  0  0  0  0
 16 17  2  0  0  0  0
 18 19  2  0  0  0  0
 18 22  1  0  0  0  0
 19 20  1  0  0  0  0
 20 21  1  0  0  0  0
 20 23  1  0  0  0  0
 21 22  2  0  0  0  0
 24 25  1  0  0  0  0
 25 26  1  0  0  0  0
 26 27  1  0  0  0  0
 27 28  1  0  0  0  0
  2 29  1  0  0  0  0
  3 30  1  0  0  0  0
  3 31  1  0  0  0  0
  4 32  1  0  0  0  0
 10 33  1  0  0  0  0
 13 34  1  0  0  0  0
 14 35  1  0  0  0  0
 15 36  1  0  0  0  0
 16 37  1  0  0  0  0
 17 38  1  0  0  0  0
 19 39  1  0  0  0  0
 22 40  1  0  0  0  0
 23 41  1  0  0  0  0
 23 42  1  0  0  0  0
 23 43  1  0  0  0  0
 24 44  1  0  0  0  0
 24 45  1  0  0  0  0
 25 46  1  0  0  0  0
 25 47  1  0  0  0  0
 27 48  1  0  0  0  0
 27 49  1  0  0  0  0
 28 50  1  0  0  0  0
 28 51  1  0  0  0  0
M  END
> <Name>
28

> <IC50[uM]>
30

$$$$
28
  -OEChem-05192314333D
 Structure written by MMmdl.
 51 55  0     1  0  0  0  0  0999 V2000
   -6.4084   12.3297  -11.9887 C   0  0  0  0  0  0  0  0  0  0  0  0
   -6.5165   11.7544  -10.7314 C   0  0  0  0  0  0  0  0  0  0  0  0
   -7.7418   10.5517  -13.0215 C   0  0  0  0  0  0  0  0  0  0  0  0
   -7.0245   11.7463  -13.1093 C   0  0  0  0  0  0  0  0  0  0  0  0
   -7.8268    9.9859  -11.7428 C   0  0  0  0  0  0  0  0  0  0  0  0
   -7.2396   10.5800  -10.6042 C   0  0  3  0  0  0  0  0  0  0  0  0
   -7.6095    9.7151   -9.5092 C   0  0  0  0  0  0  0  0  0  0  0  0
   -8.2849    8.7010   -9.9773 N   0  0  0  0  0  0  0  0  0  0  0  0
   -8.4373    8.8403  -11.2922 N   0  0  0  0  0  0  0  0  0  0  0  0
   -7.3311    9.8727   -8.0225 C   0  0  0  0  0  0  0  0  0  0  0  0
   -5.6734   13.4955  -12.1182 N   0  0  0  0  0  0  0  0  0  0  0  0
   -5.9616   10.4819   -7.7358 C   0  0  0  0  0  0  0  0  0  0  0  0
   -4.8034    9.7678   -8.0459 C   0  0  0  0  0  0  0  0  0  0  0  0
   -3.5615   10.3255   -7.7934 C   0  0  0  0  0  0  0  0  0  0  0  0
   -3.4526   11.6006   -7.2315 C   0  0  0  0  0  0  0  0  0  0  0  0
   -4.6161   12.3136   -6.9153 C   0  0  0  0  0  0  0  0  0  0  0  0
   -5.8662   11.7565   -7.1617 C   0  0  0  0  0  0  0  0  0  0  0  0
   -2.1079   12.1894   -6.9634 C   0  0  0  0  0  0  0  0  0  0  0  0
   -1.7834   13.4363   -6.4469 C   0  0  0  0  0  0  0  0  0  0  0  0
   -0.4443   13.4911   -6.3955 N   0  0  0  0  0  0  0  0  0  0  0  0
    0.1636   12.4174   -6.8067 N   0  0  0  0  0  0  0  0  0  0  0  0
   -0.8107   11.6018   -7.1804 C   0  0  0  0  0  0  0  0  0  0  0  0
    0.3735   14.6113   -5.9298 C   0  0  0  0  0  0  0  0  0  0  0  0
   -5.8857   14.5071  -13.1620 C   0  0  0  0  0  0  0  0  0  0  0  0
   -4.6042   14.8313  -13.9092 C   0  0  0  0  0  0  0  0  0  0  0  0
   -3.6374   15.2080  -12.9343 O   0  0  0  0  0  0  0  0  0  0  0  0
   -3.2854   14.1223  -12.1198 C   0  0  0  0  0  0  0  0  0  0  0  0
   -4.5109   13.8217  -11.2574 C   0  0  0  0  0  0  0  0  0  0  0  0
   -6.0481   12.2112   -9.8721 H   0  0  0  0  0  0  0  0  0  0  0  0
   -8.2018   10.0931  -13.8843 H   0  0  0  0  0  0  0  0  0  0  0  0
   -6.9404   12.2372  -14.0676 H   0  0  0  0  0  0  0  0  0  0  0  0
   -6.3233    9.9928  -10.7645 H   0  0  0  0  0  0  0  0  0  0  0  0
   -8.0292    9.5839   -7.2507 H   0  0  0  0  0  0  0  0  0  0  0  0
   -4.8756    8.7823   -8.4819 H   0  0  0  0  0  0  0  0  0  0  0  0
   -2.6674    9.7693   -8.0332 H   0  0  0  0  0  0  0  0  0  0  0  0
   -4.5421   13.2987   -6.4789 H   0  0  0  0  0  0  0  0  0  0  0  0
   -6.3960   12.4483   -7.8331 H   0  0  0  0  0  0  0  0  0  0  0  0
   -6.3899   11.7102   -6.1955 H   0  0  0  0  0  0  0  0  0  0  0  0
   -2.4737   14.2103   -6.1456 H   0  0  0  0  0  0  0  0  0  0  0  0
   -0.6522   10.6178   -7.5964 H   0  0  0  0  0  0  0  0  0  0  0  0
    1.4382   14.3462   -6.0082 H   0  0  0  0  0  0  0  0  0  0  0  0
    0.1696   15.4967   -6.5499 H   0  0  0  0  0  0  0  0  0  0  0  0
    0.1274   14.8336   -4.8810 H   0  0  0  0  0  0  0  0  0  0  0  0
   -6.6284   14.1271  -13.8790 H   0  0  0  0  0  0  0  0  0  0  0  0
   -6.2658   15.4268  -12.6932 H   0  0  0  0  0  0  0  0  0  0  0  0
   -4.2565   13.9474  -14.4640 H   0  0  0  0  0  0  0  0  0  0  0  0
   -4.7758   15.6607  -14.6111 H   0  0  0  0  0  0  0  0  0  0  0  0
   -3.0304   13.2488  -12.7378 H   0  0  0  0  0  0  0  0  0  0  0  0
   -2.4269   14.3849  -11.4842 H   0  0  0  0  0  0  0  0  0  0  0  0
   -4.7488   14.7031  -10.6438 H   0  0  0  0  0  0  0  0  0  0  0  0
   -4.2928   12.9662  -10.6013 H   0  0  0  0  0  0  0  0  0  0  0  0
  1  2  2  0  0  0  0
  1  4  1  0  0  0  0
  1 11  1  0  0  0  0
  2  6  1  0  0  0  0
  3  4  2  0  0  0  0
  3  5  1  0  0  0  0
  5  6  1  0  0  0  0
  5  9  2  0  0  0  0
  6  7  1  0  0  0  0
  7  8  2  0  0  0  0
  7 10  1  0  0  0  0
  8  9  1  0  0  0  0
 10 12  2  3  0  0  0
 11 24  1  0  0  0  0
 11 28  1  0  0  0  0
 12 13  1  0  0  0  0
 12 17  1  0  0  0  0
 13 14  2  0  0  0  0
 14 15  1  0  0  0  0
 15 16  2  0  0  0  0
 15 18  1  0  0  0  0
 16 17  1  0  0  0  0
 18 19  2  0  0  0  0
 18 22  1  0  0  0  0
 19 20  1  0  0  0  0
 20 21  1  0  0  0  0
 20 23  1  0  0  0  0
 21 22  2  0  0  0  0
 24 25  1  0  0  0  0
 25 26  1  0  0  0  0
 26 27  1  0  0  0  0
 27 28  1  0  0  0  0
  2 29  1  0  0  0  0
  3 30  1  0  0  0  0
  4 31  1  0  0  0  0
  6 32  1  0  0  0  0
 10 33  1  0  0  0  0
 13 34  1  0  0  0  0
 14 35  1  0  0  0  0
 16 36  1  0  0  0  0
 17 37  1  0  0  0  0
 17 38  1  0  0  0  0
 19 39  1  0  0  0  0
 22 40  1  0  0  0  0
 23 41  1  0  0  0  0
 23 42  1  0  0  0  0
 23 43  1  0  0  0  0
 24 44  1  0  0  0  0
 24 45  1  0  0  0  0
 25 46  1  0  0  0  0
 25 47  1  0  0  0  0
 27 48  1  0  0  0  0
 27 49  1  0  0  0  0
 28 50  1  0  0  0  0
 28 51  1  0  0  0  0
M  END
> <Name>
28

> <IC50[uM]>
30

$$$$
28
  -OEChem-05192314333D
 Structure written by MMmdl.
 51 55  0     1  0  0  0  0  0999 V2000
   -6.4084   12.3297  -11.9887 C   0  0  3  0  0  0  0  0  0  0  0  0
   -6.5165   11.7544  -10.7314 C   0  0  0  0  0  0  0  0  0  0  0  0
   -7.7418   10.5517  -13.0215 C   0  0  0  0  0  0  0  0  0  0  0  0
   -7.0245   11.7463  -13.1093 C   0  0  0  0  0  0  0  0  0  0  0  0
   -7.8268    9.9859  -11.7428 C   0  0  0  0  0  0  0  0  0  0  0  0
   -7.2396   10.5800  -10.6042 C   0  0  0  0  0  0  0  0  0  0  0  0
   -7.6095    9.7151   -9.5092 C   0  0  0  0  0  0  0  0  0  0  0  0
   -8.2849    8.7010   -9.9773 N   0  0  0  0  0  0  0  0  0  0  0  0
   -8.4373    8.8403  -11.2922 N   0  0  0  0  0  0  0  0  0  0  0  0
   -7.3311    9.8727   -8.0225 C   0  0  0  0  0  0  0  0  0  0  0  0
   -5.6734   13.4955  -12.1182 N   0  0  0  0  0  0  0  0  0  0  0  0
   -5.9616   10.4819   -7.7358 C   0  0  0  0  0  0  0  0  0  0  0  0
   -4.8034    9.7678   -8.0459 C   0  0  0  0  0  0  0  0  0  0  0  0
   -3.5615   10.3255   -7.7934 C   0  0  0  0  0  0  0  0  0  0  0  0
   -3.4526   11.6006   -7.2315 C   0  0  0  0  0  0  0  0  0  0  0  0
   -4.6161   12.3136   -6.9153 C   0  0  0  0  0  0  0  0  0  0  0  0
   -5.8662   11.7565   -7.1617 C   0  0  0  0  0  0  0  0  0  0  0  0
   -2.1079   12.1894   -6.9634 C   0  0  0  0  0  0  0  0  0  0  0  0
   -1.7834   13.4363   -6.4469 C   0  0  0  0  0  0  0  0  0  0  0  0
   -0.4443   13.4911   -6.3955 N   0  0  0  0  0  0  0  0  0  0  0  0
    0.1636   12.4174   -6.8067 N   0  0  0  0  0  0  0  0  0  0  0  0
   -0.8107   11.6018   -7.1804 C   0  0  0  0  0  0  0  0  0  0  0  0
    0.3735   14.6113   -5.9298 C   0  0  0  0  0  0  0  0  0  0  0  0
   -5.8857   14.5071  -13.1620 C   0  0  0  0  0  0  0  0  0  0  0  0
   -4.6042   14.8313  -13.9092 C   0  0  0  0  0  0  0  0  0  0  0  0
   -3.6374   15.2080  -12.9343 O   0  0  0  0  0  0  0  0  0  0  0  0
   -3.2854   14.1223  -12.1198 C   0  0  0  0  0  0  0  0  0  0  0  0
   -4.5109   13.8217  -11.2574 C   0  0  0  0  0  0  0  0  0  0  0  0
   -7.3155   12.9217  -11.7969 H   0  0  0  0  0  0  0  0  0  0  0  0
   -6.0481   12.2112   -9.8721 H   0  0  0  0  0  0  0  0  0  0  0  0
   -8.2018   10.0931  -13.8843 H   0  0  0  0  0  0  0  0  0  0  0  0
   -6.9404   12.2372  -14.0676 H   0  0  0  0  0  0  0  0  0  0  0  0
   -8.0292    9.5839   -7.2507 H   0  0  0  0  0  0  0  0  0  0  0  0
   -4.8756    8.7823   -8.4819 H   0  0  0  0  0  0  0  0  0  0  0  0
   -2.6674    9.7693   -8.0332 H   0  0  0  0  0  0  0  0  0  0  0  0
   -4.5421   13.2987   -6.4789 H   0  0  0  0  0  0  0  0  0  0  0  0
   -6.3960   12.4483   -7.8331 H   0  0  0  0  0  0  0  0  0  0  0  0
   -6.3899   11.7102   -6.1955 H   0  0  0  0  0  0  0  0  0  0  0  0
   -2.4737   14.2103   -6.1456 H   0  0  0  0  0  0  0  0  0  0  0  0
   -0.6522   10.6178   -7.5964 H   0  0  0  0  0  0  0  0  0  0  0  0
    1.4382   14.3462   -6.0082 H   0  0  0  0  0  0  0  0  0  0  0  0
    0.1696   15.4967   -6.5499 H   0  0  0  0  0  0  0  0  0  0  0  0
    0.1274   14.8336   -4.8810 H   0  0  0  0  0  0  0  0  0  0  0  0
   -6.6284   14.1271  -13.8790 H   0  0  0  0  0  0  0  0  0  0  0  0
   -6.2658   15.4268  -12.6932 H   0  0  0  0  0  0  0  0  0  0  0  0
   -4.2565   13.9474  -14.4640 H   0  0  0  0  0  0  0  0  0  0  0  0
   -4.7758   15.6607  -14.6111 H   0  0  0  0  0  0  0  0  0  0  0  0
   -3.0304   13.2488  -12.7378 H   0  0  0  0  0  0  0  0  0  0  0  0
   -2.4269   14.3849  -11.4842 H   0  0  0  0  0  0  0  0  0  0  0  0
   -4.7488   14.7031  -10.6438 H   0  0  0  0  0  0  0  0  0  0  0  0
   -4.2928   12.9662  -10.6013 H   0  0  0  0  0  0  0  0  0  0  0  0
  1  2  1  0  0  0  0
  1  4  1  0  0  0  0
  1 11  1  0  0  0  0
  2  6  2  0  0  0  0
  3  4  2  0  0  0  0
  3  5  1  0  0  0  0
  5  6  1  0  0  0  0
  5  9  2  0  0  0  0
  6  7  1  0  0  0  0
  7  8  2  0  0  0  0
  7 10  1  0  0  0  0
  8  9  1  0  0  0  0
 10 12  2  3  0  0  0
 11 24  1  0  0  0  0
 11 28  1  0  0  0  0
 12 13  1  0  0  0  0
 12 17  1  0  0  0  0
 13 14  2  0  0  0  0
 14 15  1  0  0  0  0
 15 16  2  0  0  0  0
 15 18  1  0  0  0  0
 16 17  1  0  0  0  0
 18 19  2  0  0  0  0
 18 22  1  0  0  0  0
 19 20  1  0  0  0  0
 20 21  1  0  0  0  0
 20 23  1  0  0  0  0
 21 22  2  0  0  0  0
 24 25  1  0  0  0  0
 25 26  1  0  0  0  0
 26 27  1  0  0  0  0
 27 28  1  0  0  0  0
  1 29  1  0  0  0  0
  2 30  1  0  0  0  0
  3 31  1  0  0  0  0
  4 32  1  0  0  0  0
 10 33  1  0  0  0  0
 13 34  1  0  0  0  0
 14 35  1  0  0  0  0
 16 36  1  0  0  0  0
 17 37  1  0  0  0  0
 17 38  1  0  0  0  0
 19 39  1  0  0  0  0
 22 40  1  0  0  0  0
 23 41  1  0  0  0  0
 23 42  1  0  0  0  0
 23 43  1  0  0  0  0
 24 44  1  0  0  0  0
 24 45  1  0  0  0  0
 25 46  1  0  0  0  0
 25 47  1  0  0  0  0
 27 48  1  0  0  0  0
 27 49  1  0  0  0  0
 28 50  1  0  0  0  0
 28 51  1  0  0  0  0
M  END
> <Name>
28

> <IC50[uM]>
30

$$$$
28
  -OEChem-05192314333D
 Structure written by MMmdl.
 51 55  0     0  0  0  0  0  0999 V2000
   -6.4084   12.3297  -11.9887 C   0  0  0  0  0  0  0  0  0  0  0  0
   -6.5165   11.7544  -10.7314 C   0  0  0  0  0  0  0  0  0  0  0  0
   -7.7418   10.5517  -13.0215 C   0  0  0  0  0  0  0  0  0  0  0  0
   -7.0245   11.7463  -13.1093 C   0  0  0  0  0  0  0  0  0  0  0  0
   -7.8268    9.9859  -11.7428 C   0  0  0  0  0  0  0  0  0  0  0  0
   -7.2396   10.5800  -10.6042 C   0  0  0  0  0  0  0  0  0  0  0  0
   -7.6095    9.7151   -9.5092 C   0  0  0  0  0  0  0  0  0  0  0  0
   -8.2849    8.7010   -9.9773 N   0  0  0  0  0  0  0  0  0  0  0  0
   -8.4373    8.8403  -11.2922 N   0  0  0  0  0  0  0  0  0  0  0  0
   -7.3311    9.8727   -8.0225 C   0  0  0  0  0  0  0  0  0  0  0  0
   -5.6734   13.4955  -12.1182 N   0  0  0  0  0  0  0  0  0  0  0  0
   -5.9616   10.4819   -7.7358 C   0  0  0  0  0  0  0  0  0  0  0  0
   -4.8034    9.7678   -8.0459 C   0  0  0  0  0  0  0  0  0  0  0  0
   -3.5615   10.3255   -7.7934 C   0  0  0  0  0  0  0  0  0  0  0  0
   -3.4526   11.6006   -7.2315 C   0  0  0  0  0  0  0  0  0  0  0  0
   -4.6161   12.3136   -6.9153 C   0  0  0  0  0  0  0  0  0  0  0  0
   -5.8662   11.7565   -7.1617 C   0  0  0  0  0  0  0  0  0  0  0  0
   -2.1079   12.1894   -6.9634 C   0  0  0  0  0  0  0  0  0  0  0  0
   -1.7834   13.4363   -6.4469 C   0  0  0  0  0  0  0  0  0  0  0  0
   -0.4443   13.4911   -6.3955 N   0  0  0  0  0  0  0  0  0  0  0  0
    0.1636   12.4174   -6.8067 N   0  0  0  0  0  0  0  0  0  0  0  0
   -0.8107   11.6018   -7.1804 C   0  0  0  0  0  0  0  0  0  0  0  0
    0.3735   14.6113   -5.9298 C   0  0  0  0  0  0  0  0  0  0  0  0
   -5.8857   14.5071  -13.1620 C   0  0  0  0  0  0  0  0  0  0  0  0
   -4.6042   14.8313  -13.9092 C   0  0  0  0  0  0  0  0  0  0  0  0
   -3.6374   15.2080  -12.9343 O   0  0  0  0  0  0  0  0  0  0  0  0
   -3.2854   14.1223  -12.1198 C   0  0  0  0  0  0  0  0  0  0  0  0
   -4.5109   13.8217  -11.2574 C   0  0  0  0  0  0  0  0  0  0  0  0
   -6.0481   12.2112   -9.8721 H   0  0  0  0  0  0  0  0  0  0  0  0
   -8.7656   10.7458  -13.3738 H   0  0  0  0  0  0  0  0  0  0  0  0
   -7.2589    9.8183  -13.6840 H   0  0  0  0  0  0  0  0  0  0  0  0
   -6.9404   12.2372  -14.0676 H   0  0  0  0  0  0  0  0  0  0  0  0
   -8.0292    9.5839   -7.2507 H   0  0  0  0  0  0  0  0  0  0  0  0
   -4.8756    8.7823   -8.4819 H   0  0  0  0  0  0  0  0  0  0  0  0
   -2.6674    9.7693   -8.0332 H   0  0  0  0  0  0  0  0  0  0  0  0
   -4.5421   13.2987   -6.4789 H   0  0  0  0  0  0  0  0  0  0  0  0
   -6.3960   12.4483   -7.8331 H   0  0  0  0  0  0  0  0  0  0  0  0
   -6.3899   11.7102   -6.1955 H   0  0  0  0  0  0  0  0  0  0  0  0
   -2.4737   14.2103   -6.1456 H   0  0  0  0  0  0  0  0  0  0  0  0
   -0.6522   10.6178   -7.5964 H   0  0  0  0  0  0  0  0  0  0  0  0
    1.4382   14.3462   -6.0082 H   0  0  0  0  0  0  0  0  0  0  0  0
    0.1696   15.4967   -6.5499 H   0  0  0  0  0  0  0  0  0  0  0  0
    0.1274   14.8336   -4.8810 H   0  0  0  0  0  0  0  0  0  0  0  0
   -6.6284   14.1271  -13.8790 H   0  0  0  0  0  0  0  0  0  0  0  0
   -6.2658   15.4268  -12.6932 H   0  0  0  0  0  0  0  0  0  0  0  0
   -4.2565   13.9474  -14.4640 H   0  0  0  0  0  0  0  0  0  0  0  0
   -4.7758   15.6607  -14.6111 H   0  0  0  0  0  0  0  0  0  0  0  0
   -3.0304   13.2488  -12.7378 H   0  0  0  0  0  0  0  0  0  0  0  0
   -2.4269   14.3849  -11.4842 H   0  0  0  0  0  0  0  0  0  0  0  0
   -4.7488   14.7031  -10.6438 H   0  0  0  0  0  0  0  0  0  0  0  0
   -4.2928   12.9662  -10.6013 H   0  0  0  0  0  0  0  0  0  0  0  0
  1  2  1  0  0  0  0
  1  4  2  0  0  0  0
  1 11  1  0  0  0  0
  2  6  2  0  0  0  0
  3  4  1  0  0  0  0
  3  5  1  0  0  0  0
  5  6  1  0  0  0  0
  5  9  2  0  0  0  0
  6  7  1  0  0  0  0
  7  8  2  0  0  0  0
  7 10  1  0  0  0  0
  8  9  1  0  0  0  0
 10 12  2  3  0  0  0
 11 24  1  0  0  0  0
 11 28  1  0  0  0  0
 12 13  1  0  0  0  0
 12 17  1  0  0  0  0
 13 14  2  0  0  0  0
 14 15  1  0  0  0  0
 15 16  2  0  0  0  0
 15 18  1  0  0  0  0
 16 17  1  0  0  0  0
 18 19  2  0  0  0  0
 18 22  1  0  0  0  0
 19 20  1  0  0  0  0
 20 21  1  0  0  0  0
 20 23  1  0  0  0  0
 21 22  2  0  0  0  0
 24 25  1  0  0  0  0
 25 26  1  0  0  0  0
 26 27  1  0  0  0  0
 27 28  1  0  0  0  0
  2 29  1  0  0  0  0
  3 30  1  0  0  0  0
  3 31  1  0  0  0  0
  4 32  1  0  0  0  0
 10 33  1  0  0  0  0
 13 34  1  0  0  0  0
 14 35  1  0  0  0  0
 16 36  1  0  0  0  0
 17 37  1  0  0  0  0
 17 38  1  0  0  0  0
 19 39  1  0  0  0  0
 22 40  1  0  0  0  0
 23 41  1  0  0  0  0
 23 42  1  0  0  0  0
 23 43  1  0  0  0  0
 24 44  1  0  0  0  0
 24 45  1  0  0  0  0
 25 46  1  0  0  0  0
 25 47  1  0  0  0  0
 27 48  1  0  0  0  0
 27 49  1  0  0  0  0
 28 50  1  0  0  0  0
 28 51  1  0  0  0  0
M  END
> <Name>
28

> <IC50[uM]>
30

$$$$
28
  -OEChem-05192314333D
 Structure written by MMmdl.
 51 55  0     1  0  0  0  0  0999 V2000
   -6.4084   12.3297  -11.9887 C   0  0  0  0  0  0  0  0  0  0  0  0
   -6.5165   11.7544  -10.7314 C   0  0  0  0  0  0  0  0  0  0  0  0
   -7.7418   10.5517  -13.0215 C   0  0  0  0  0  0  0  0  0  0  0  0
   -7.0245   11.7463  -13.1093 C   0  0  0  0  0  0  0  0  0  0  0  0
   -7.8268    9.9859  -11.7428 C   0  0  3  0  0  0  0  0  0  0  0  0
   -7.2396   10.5800  -10.6042 C   0  0  0  0  0  0  0  0  0  0  0  0
   -7.6095    9.7151   -9.5092 C   0  0  0  0  0  0  0  0  0  0  0  0
   -8.2849    8.7010   -9.9773 N   0  0  0  0  0  0  0  0  0  0  0  0
   -8.4373    8.8403  -11.2922 N   0  0  0  0  0  0  0  0  0  0  0  0
   -7.3311    9.8727   -8.0225 C   0  0  0  0  0  0  0  0  0  0  0  0
   -5.6734   13.4955  -12.1182 N   0  0  0  0  0  0  0  0  0  0  0  0
   -5.9616   10.4819   -7.7358 C   0  0  0  0  0  0  0  0  0  0  0  0
   -4.8034    9.7678   -8.0459 C   0  0  0  0  0  0  0  0  0  0  0  0
   -3.5615   10.3255   -7.7934 C   0  0  0  0  0  0  0  0  0  0  0  0
   -3.4526   11.6006   -7.2315 C   0  0  0  0  0  0  0  0  0  0  0  0
   -4.6161   12.3136   -6.9153 C   0  0  0  0  0  0  0  0  0  0  0  0
   -5.8662   11.7565   -7.1617 C   0  0  0  0  0  0  0  0  0  0  0  0
   -2.1079   12.1894   -6.9634 C   0  0  0  0  0  0  0  0  0  0  0  0
   -1.7834   13.4363   -6.4469 C   0  0  0  0  0  0  0  0  0  0  0  0
   -0.4443   13.4911   -6.3955 N   0  0  0  0  0  0  0  0  0  0  0  0
    0.1636   12.4174   -6.8067 N   0  0  0  0  0  0  0  0  0  0  0  0
   -0.8107   11.6018   -7.1804 C   0  0  0  0  0  0  0  0  0  0  0  0
    0.3735   14.6113   -5.9298 C   0  0  0  0  0  0  0  0  0  0  0  0
   -5.8857   14.5071  -13.1620 C   0  0  0  0  0  0  0  0  0  0  0  0
   -4.6042   14.8313  -13.9092 C   0  0  0  0  0  0  0  0  0  0  0  0
   -3.6374   15.2080  -12.9343 O   0  0  0  0  0  0  0  0  0  0  0  0
   -3.2854   14.1223  -12.1198 C   0  0  0  0  0  0  0  0  0  0  0  0
   -4.5109   13.8217  -11.2574 C   0  0  0  0  0  0  0  0  0  0  0  0
   -6.0481   12.2112   -9.8721 H   0  0  0  0  0  0  0  0  0  0  0  0
   -8.2018   10.0931  -13.8843 H   0  0  0  0  0  0  0  0  0  0  0  0
   -6.9404   12.2372  -14.0676 H   0  0  0  0  0  0  0  0  0  0  0  0
   -6.9008    9.4219  -11.9286 H   0  0  0  0  0  0  0  0  0  0  0  0
   -8.0292    9.5839   -7.2507 H   0  0  0  0  0  0  0  0  0  0  0  0
   -4.8756    8.7823   -8.4819 H   0  0  0  0  0  0  0  0  0  0  0  0
   -2.6674    9.7693   -8.0332 H   0  0  0  0  0  0  0  0  0  0  0  0
   -3.4498   12.0463   -8.2372 H   0  0  0  0  0  0  0  0  0  0  0  0
   -4.5421   13.2987   -6.4789 H   0  0  0  0  0  0  0  0  0  0  0  0
   -6.7619   12.3053   -6.9110 H   0  0  0  0  0  0  0  0  0  0  0  0
   -2.4737   14.2103   -6.1456 H   0  0  0  0  0  0  0  0  0  0  0  0
   -0.6522   10.6178   -7.5964 H   0  0  0  0  0  0  0  0  0  0  0  0
    1.4382   14.3462   -6.0082 H   0  0  0  0  0  0  0  0  0  0  0  0
    0.1696   15.4967   -6.5499 H   0  0  0  0  0  0  0  0  0  0  0  0
    0.1274   14.8336   -4.8810 H   0  0  0  0  0  0  0  0  0  0  0  0
   -6.6284   14.1271  -13.8790 H   0  0  0  0  0  0  0  0  0  0  0  0
   -6.2658   15.4268  -12.6932 H   0  0  0  0  0  0  0  0  0  0  0  0
   -4.2565   13.9474  -14.4640 H   0  0  0  0  0  0  0  0  0  0  0  0
   -4.7758   15.6607  -14.6111 H   0  0  0  0  0  0  0  0  0  0  0  0
   -3.0304   13.2488  -12.7378 H   0  0  0  0  0  0  0  0  0  0  0  0
   -2.4269   14.3849  -11.4842 H   0  0  0  0  0  0  0  0  0  0  0  0
   -4.7488   14.7031  -10.6438 H   0  0  0  0  0  0  0  0  0  0  0  0
   -4.2928   12.9662  -10.6013 H   0  0  0  0  0  0  0  0  0  0  0  0
  1  2  2  0  0  0  0
  1  4  1  0  0  0  0
  1 11  1  0  0  0  0
  2  6  1  0  0  0  0
  3  4  2  0  0  0  0
  3  5  1  0  0  0  0
  5  6  1  0  0  0  0
  5  9  1  0  0  0  0
  6  7  2  0  0  0  0
  7  8  1  0  0  0  0
  7 10  1  0  0  0  0
  8  9  2  0  0  0  0
 10 12  2  0  0  0  0
 11 24  1  0  0  0  0
 11 28  1  0  0  0  0
 12 13  1  0  0  0  0
 12 17  1  0  0  0  0
 13 14  2  0  0  0  0
 14 15  1  0  0  0  0
 15 16  1  0  0  0  0
 15 18  1  0  0  0  0
 16 17  2  0  0  0  0
 18 19  2  0  0  0  0
 18 22  1  0  0  0  0
 19 20  1  0  0  0  0
 20 21  1  0  0  0  0
 20 23  1  0  0  0  0
 21 22  2  0  0  0  0
 24 25  1  0  0  0  0
 25 26  1  0  0  0  0
 26 27  1  0  0  0  0
 27 28  1  0  0  0  0
  2 29  1  0  0  0  0
  3 30  1  0  0  0  0
  4 31  1  0  0  0  0
  5 32  1  0  0  0  0
 10 33  1  0  0  0  0
 13 34  1  0  0  0  0
 14 35  1  0  0  0  0
 15 36  1  0  0  0  0
 16 37  1  0  0  0  0
 17 38  1  0  0  0  0
 19 39  1  0  0  0  0
 22 40  1  0  0  0  0
 23 41  1  0  0  0  0
 23 42  1  0  0  0  0
 23 43  1  0  0  0  0
 24 44  1  0  0  0  0
 24 45  1  0  0  0  0
 25 46  1  0  0  0  0
 25 47  1  0  0  0  0
 27 48  1  0  0  0  0
 27 49  1  0  0  0  0
 28 50  1  0  0  0  0
 28 51  1  0  0  0  0
M  END
> <Name>
28

> <IC50[uM]>
30

$$$$
28
  -OEChem-05192314333D
 Structure written by MMmdl.
 51 55  0     0  0  0  0  0  0999 V2000
   -6.4084   12.3297  -11.9887 C   0  0  0  0  0  0  0  0  0  0  0  0
   -6.5165   11.7544  -10.7314 C   0  0  0  0  0  0  0  0  0  0  0  0
   -7.7418   10.5517  -13.0215 C   0  0  0  0  0  0  0  0  0  0  0  0
   -7.0245   11.7463  -13.1093 C   0  0  0  0  0  0  0  0  0  0  0  0
   -7.8268    9.9859  -11.7428 C   0  0  0  0  0  0  0  0  0  0  0  0
   -7.2396   10.5800  -10.6042 C   0  0  0  0  0  0  0  0  0  0  0  0
   -7.6095    9.7151   -9.5092 C   0  0  0  0  0  0  0  0  0  0  0  0
   -8.2849    8.7010   -9.9773 N   0  0  0  0  0  0  0  0  0  0  0  0
   -8.4373    8.8403  -11.2922 N   0  0  0  0  0  0  0  0  0  0  0  0
   -7.3311    9.8727   -8.0225 C   0  0  0  0  0  0  0  0  0  0  0  0
   -5.6734   13.4955  -12.1182 N   0  0  0  0  0  0  0  0  0  0  0  0
   -5.9616   10.4819   -7.7358 C   0  0  0  0  0  0  0  0  0  0  0  0
   -4.8034    9.7678   -8.0459 C   0  0  0  0  0  0  0  0  0  0  0  0
   -3.5615   10.3255   -7.7934 C   0  0  0  0  0  0  0  0  0  0  0  0
   -3.4526   11.6006   -7.2315 C   0  0  0  0  0  0  0  0  0  0  0  0
   -4.6161   12.3136   -6.9153 C   0  0  0  0  0  0  0  0  0  0  0  0
   -5.8662   11.7565   -7.1617 C   0  0  0  0  0  0  0  0  0  0  0  0
   -2.1079   12.1894   -6.9634 C   0  0  0  0  0  0  0  0  0  0  0  0
   -1.7834   13.4363   -6.4469 C   0  0  0  0  0  0  0  0  0  0  0  0
   -0.4443   13.4911   -6.3955 N   0  0  0  0  0  0  0  0  0  0  0  0
    0.1636   12.4174   -6.8067 N   0  0  0  0  0  0  0  0  0  0  0  0
   -0.8107   11.6018   -7.1804 C   0  0  0  0  0  0  0  0  0  0  0  0
    0.3735   14.6113   -5.9298 C   0  0  0  0  0  0  0  0  0  0  0  0
   -5.8857   14.5071  -13.1620 C   0  0  0  0  0  0  0  0  0  0  0  0
   -4.6042   14.8313  -13.9092 C   0  0  0  0  0  0  0  0  0  0  0  0
   -3.6374   15.2080  -12.9343 O   0  0  0  0  0  0  0  0  0  0  0  0
   -3.2854   14.1223  -12.1198 C   0  0  0  0  0  0  0  0  0  0  0  0
   -4.5109   13.8217  -11.2574 C   0  0  0  0  0  0  0  0  0  0  0  0
   -6.0481   12.2112   -9.8721 H   0  0  0  0  0  0  0  0  0  0  0  0
   -8.2018   10.0931  -13.8843 H   0  0  0  0  0  0  0  0  0  0  0  0
   -7.7253   12.4980  -13.5014 H   0  0  0  0  0  0  0  0  0  0  0  0
   -6.2248   11.5719  -13.8442 H   0  0  0  0  0  0  0  0  0  0  0  0
   -8.0292    9.5839   -7.2507 H   0  0  0  0  0  0  0  0  0  0  0  0
   -4.8756    8.7823   -8.4819 H   0  0  0  0  0  0  0  0  0  0  0  0
   -2.6674    9.7693   -8.0332 H   0  0  0  0  0  0  0  0  0  0  0  0
   -3.4498   12.0463   -8.2372 H   0  0  0  0  0  0  0  0  0  0  0  0
   -4.5421   13.2987   -6.4789 H   0  0  0  0  0  0  0  0  0  0  0  0
   -6.7619   12.3053   -6.9110 H   0  0  0  0  0  0  0  0  0  0  0  0
   -2.4737   14.2103   -6.1456 H   0  0  0  0  0  0  0  0  0  0  0  0
   -0.6522   10.6178   -7.5964 H   0  0  0  0  0  0  0  0  0  0  0  0
    1.4382   14.3462   -6.0082 H   0  0  0  0  0  0  0  0  0  0  0  0
    0.1696   15.4967   -6.5499 H   0  0  0  0  0  0  0  0  0  0  0  0
    0.1274   14.8336   -4.8810 H   0  0  0  0  0  0  0  0  0  0  0  0
   -6.6284   14.1271  -13.8790 H   0  0  0  0  0  0  0  0  0  0  0  0
   -6.2658   15.4268  -12.6932 H   0  0  0  0  0  0  0  0  0  0  0  0
   -4.2565   13.9474  -14.4640 H   0  0  0  0  0  0  0  0  0  0  0  0
   -4.7758   15.6607  -14.6111 H   0  0  0  0  0  0  0  0  0  0  0  0
   -3.0304   13.2488  -12.7378 H   0  0  0  0  0  0  0  0  0  0  0  0
   -2.4269   14.3849  -11.4842 H   0  0  0  0  0  0  0  0  0  0  0  0
   -4.7488   14.7031  -10.6438 H   0  0  0  0  0  0  0  0  0  0  0  0
   -4.2928   12.9662  -10.6013 H   0  0  0  0  0  0  0  0  0  0  0  0
  1  2  2  0  0  0  0
  1  4  1  0  0  0  0
  1 11  1  0  0  0  0
  2  6  1  0  0  0  0
  3  4  1  0  0  0  0
  3  5  2  0  0  0  0
  5  6  1  0  0  0  0
  5  9  1  0  0  0  0
  6  7  2  0  0  0  0
  7  8  1  0  0  0  0
  7 10  1  0  0  0  0
  8  9  2  0  0  0  0
 10 12  2  0  0  0  0
 11 24  1  0  0  0  0
 11 28  1  0  0  0  0
 12 13  1  0  0  0  0
 12 17  1  0  0  0  0
 13 14  2  0  0  0  0
 14 15  1  0  0  0  0
 15 16  1  0  0  0  0
 15 18  1  0  0  0  0
 16 17  2  0  0  0  0
 18 19  2  0  0  0  0
 18 22  1  0  0  0  0
 19 20  1  0  0  0  0
 20 21  1  0  0  0  0
 20 23  1  0  0  0  0
 21 22  2  0  0  0  0
 24 25  1  0  0  0  0
 25 26  1  0  0  0  0
 26 27  1  0  0  0  0
 27 28  1  0  0  0  0
  2 29  1  0  0  0  0
  3 30  1  0  0  0  0
  4 31  1  0  0  0  0
  4 32  1  0  0  0  0
 10 33  1  0  0  0  0
 13 34  1  0  0  0  0
 14 35  1  0  0  0  0
 15 36  1  0  0  0  0
 16 37  1  0  0  0  0
 17 38  1  0  0  0  0
 19 39  1  0  0  0  0
 22 40  1  0  0  0  0
 23 41  1  0  0  0  0
 23 42  1  0  0  0  0
 23 43  1  0  0  0  0
 24 44  1  0  0  0  0
 24 45  1  0  0  0  0
 25 46  1  0  0  0  0
 25 47  1  0  0  0  0
 27 48  1  0  0  0  0
 27 49  1  0  0  0  0
 28 50  1  0  0  0  0
 28 51  1  0  0  0  0
M  END
> <Name>
28

> <IC50[uM]>
30

$$$$
28
  -OEChem-05192314333D
 Structure written by MMmdl.
 51 55  0     1  0  0  0  0  0999 V2000
   -6.4084   12.3297  -11.9887 C   0  0  0  0  0  0  0  0  0  0  0  0
   -6.5165   11.7544  -10.7314 C   0  0  0  0  0  0  0  0  0  0  0  0
   -7.7418   10.5517  -13.0215 C   0  0  0  0  0  0  0  0  0  0  0  0
   -7.0245   11.7463  -13.1093 C   0  0  0  0  0  0  0  0  0  0  0  0
   -7.8268    9.9859  -11.7428 C   0  0  3  0  0  0  0  0  0  0  0  0
   -7.2396   10.5800  -10.6042 C   0  0  0  0  0  0  0  0  0  0  0  0
   -7.6095    9.7151   -9.5092 C   0  0  0  0  0  0  0  0  0  0  0  0
   -8.2849    8.7010   -9.9773 N   0  0  0  0  0  0  0  0  0  0  0  0
   -8.4373    8.8403  -11.2922 N   0  0  0  0  0  0  0  0  0  0  0  0
   -7.3311    9.8727   -8.0225 C   0  0  0  0  0  0  0  0  0  0  0  0
   -5.6734   13.4955  -12.1182 N   0  0  0  0  0  0  0  0  0  0  0  0
   -5.9616   10.4819   -7.7358 C   0  0  0  0  0  0  0  0  0  0  0  0
   -4.8034    9.7678   -8.0459 C   0  0  0  0  0  0  0  0  0  0  0  0
   -3.5615   10.3255   -7.7934 C   0  0  0  0  0  0  0  0  0  0  0  0
   -3.4526   11.6006   -7.2315 C   0  0  0  0  0  0  0  0  0  0  0  0
   -4.6161   12.3136   -6.9153 C   0  0  0  0  0  0  0  0  0  0  0  0
   -5.8662   11.7565   -7.1617 C   0  0  0  0  0  0  0  0  0  0  0  0
   -2.1079   12.1894   -6.9634 C   0  0  0  0  0  0  0  0  0  0  0  0
   -1.7834   13.4363   -6.4469 C   0  0  0  0  0  0  0  0  0  0  0  0
   -0.4443   13.4911   -6.3955 N   0  0  0  0  0  0  0  0  0  0  0  0
    0.1636   12.4174   -6.8067 N   0  0  0  0  0  0  0  0  0  0  0  0
   -0.8107   11.6018   -7.1804 C   0  0  0  0  0  0  0  0  0  0  0  0
    0.3735   14.6113   -5.9298 C   0  0  0  0  0  0  0  0  0  0  0  0
   -5.8857   14.5071  -13.1620 C   0  0  0  0  0  0  0  0  0  0  0  0
   -4.6042   14.8313  -13.9092 C   0  0  0  0  0  0  0  0  0  0  0  0
   -3.6374   15.2080  -12.9343 O   0  0  0  0  0  0  0  0  0  0  0  0
   -3.2854   14.1223  -12.1198 C   0  0  0  0  0  0  0  0  0  0  0  0
   -4.5109   13.8217  -11.2574 C   0  0  0  0  0  0  0  0  0  0  0  0
   -6.0481   12.2112   -9.8721 H   0  0  0  0  0  0  0  0  0  0  0  0
   -8.2018   10.0931  -13.8843 H   0  0  0  0  0  0  0  0  0  0  0  0
   -6.9404   12.2372  -14.0676 H   0  0  0  0  0  0  0  0  0  0  0  0
   -6.9008    9.4219  -11.9286 H   0  0  0  0  0  0  0  0  0  0  0  0
   -8.0292    9.5839   -7.2507 H   0  0  0  0  0  0  0  0  0  0  0  0
   -4.8756    8.7823   -8.4819 H   0  0  0  0  0  0  0  0  0  0  0  0
   -2.6674    9.7693   -8.0332 H   0  0  0  0  0  0  0  0  0  0  0  0
   -4.5421   13.2987   -6.4789 H   0  0  0  0  0  0  0  0  0  0  0  0
   -6.3960   12.4483   -7.8331 H   0  0  0  0  0  0  0  0  0  0  0  0
   -6.3899   11.7102   -6.1955 H   0  0  0  0  0  0  0  0  0  0  0  0
   -2.4737   14.2103   -6.1456 H   0  0  0  0  0  0  0  0  0  0  0  0
   -0.6522   10.6178   -7.5964 H   0  0  0  0  0  0  0  0  0  0  0  0
    1.4382   14.3462   -6.0082 H   0  0  0  0  0  0  0  0  0  0  0  0
    0.1696   15.4967   -6.5499 H   0  0  0  0  0  0  0  0  0  0  0  0
    0.1274   14.8336   -4.8810 H   0  0  0  0  0  0  0  0  0  0  0  0
   -6.6284   14.1271  -13.8790 H   0  0  0  0  0  0  0  0  0  0  0  0
   -6.2658   15.4268  -12.6932 H   0  0  0  0  0  0  0  0  0  0  0  0
   -4.2565   13.9474  -14.4640 H   0  0  0  0  0  0  0  0  0  0  0  0
   -4.7758   15.6607  -14.6111 H   0  0  0  0  0  0  0  0  0  0  0  0
   -3.0304   13.2488  -12.7378 H   0  0  0  0  0  0  0  0  0  0  0  0
   -2.4269   14.3849  -11.4842 H   0  0  0  0  0  0  0  0  0  0  0  0
   -4.7488   14.7031  -10.6438 H   0  0  0  0  0  0  0  0  0  0  0  0
   -4.2928   12.9662  -10.6013 H   0  0  0  0  0  0  0  0  0  0  0  0
  1  2  2  0  0  0  0
  1  4  1  0  0  0  0
  1 11  1  0  0  0  0
  2  6  1  0  0  0  0
  3  4  2  0  0  0  0
  3  5  1  0  0  0  0
  5  6  1  0  0  0  0
  5  9  1  0  0  0  0
  6  7  2  0  0  0  0
  7  8  1  0  0  0  0
  7 10  1  0  0  0  0
  8  9  2  0  0  0  0
 10 12  2  3  0  0  0
 11 24  1  0  0  0  0
 11 28  1  0  0  0  0
 12 13  1  0  0  0  0
 12 17  1  0  0  0  0
 13 14  2  0  0  0  0
 14 15  1  0  0  0  0
 15 16  2  0  0  0  0
 15 18  1  0  0  0  0
 16 17  1  0  0  0  0
 18 19  2  0  0  0  0
 18 22  1  0  0  0  0
 19 20  1  0  0  0  0
 20 21  1  0  0  0  0
 20 23  1  0  0  0  0
 21 22  2  0  0  0  0
 24 25  1  0  0  0  0
 25 26  1  0  0  0  0
 26 27  1  0  0  0  0
 27 28  1  0  0  0  0
  2 29  1  0  0  0  0
  3 30  1  0  0  0  0
  4 31  1  0  0  0  0
  5 32  1  0  0  0  0
 10 33  1  0  0  0  0
 13 34  1  0  0  0  0
 14 35  1  0  0  0  0
 16 36  1  0  0  0  0
 17 37  1  0  0  0  0
 17 38  1  0  0  0  0
 19 39  1  0  0  0  0
 22 40  1  0  0  0  0
 23 41  1  0  0  0  0
 23 42  1  0  0  0  0
 23 43  1  0  0  0  0
 24 44  1  0  0  0  0
 24 45  1  0  0  0  0
 25 46  1  0  0  0  0
 25 47  1  0  0  0  0
 27 48  1  0  0  0  0
 27 49  1  0  0  0  0
 28 50  1  0  0  0  0
 28 51  1  0  0  0  0
M  END
> <Name>
28

> <IC50[uM]>
30

$$$$
28
  -OEChem-05192314333D
 Structure written by MMmdl.
 51 55  0     0  0  0  0  0  0999 V2000
   -6.4084   12.3297  -11.9887 C   0  0  0  0  0  0  0  0  0  0  0  0
   -6.5165   11.7544  -10.7314 C   0  0  0  0  0  0  0  0  0  0  0  0
   -7.7418   10.5517  -13.0215 C   0  0  0  0  0  0  0  0  0  0  0  0
   -7.0245   11.7463  -13.1093 C   0  0  0  0  0  0  0  0  0  0  0  0
   -7.8268    9.9859  -11.7428 C   0  0  0  0  0  0  0  0  0  0  0  0
   -7.2396   10.5800  -10.6042 C   0  0  0  0  0  0  0  0  0  0  0  0
   -7.6095    9.7151   -9.5092 C   0  0  0  0  0  0  0  0  0  0  0  0
   -8.2849    8.7010   -9.9773 N   0  0  0  0  0  0  0  0  0  0  0  0
   -8.4373    8.8403  -11.2922 N   0  0  0  0  0  0  0  0  0  0  0  0
   -7.3311    9.8727   -8.0225 C   0  0  0  0  0  0  0  0  0  0  0  0
   -5.6734   13.4955  -12.1182 N   0  0  0  0  0  0  0  0  0  0  0  0
   -5.9616   10.4819   -7.7358 C   0  0  0  0  0  0  0  0  0  0  0  0
   -4.8034    9.7678   -8.0459 C   0  0  0  0  0  0  0  0  0  0  0  0
   -3.5615   10.3255   -7.7934 C   0  0  0  0  0  0  0  0  0  0  0  0
   -3.4526   11.6006   -7.2315 C   0  0  0  0  0  0  0  0  0  0  0  0
   -4.6161   12.3136   -6.9153 C   0  0  0  0  0  0  0  0  0  0  0  0
   -5.8662   11.7565   -7.1617 C   0  0  0  0  0  0  0  0  0  0  0  0
   -2.1079   12.1894   -6.9634 C   0  0  0  0  0  0  0  0  0  0  0  0
   -1.7834   13.4363   -6.4469 C   0  0  0  0  0  0  0  0  0  0  0  0
   -0.4443   13.4911   -6.3955 N   0  0  0  0  0  0  0  0  0  0  0  0
    0.1636   12.4174   -6.8067 N   0  0  0  0  0  0  0  0  0  0  0  0
   -0.8107   11.6018   -7.1804 C   0  0  0  0  0  0  0  0  0  0  0  0
    0.3735   14.6113   -5.9298 C   0  0  0  0  0  0  0  0  0  0  0  0
   -5.8857   14.5071  -13.1620 C   0  0  0  0  0  0  0  0  0  0  0  0
   -4.6042   14.8313  -13.9092 C   0  0  0  0  0  0  0  0  0  0  0  0
   -3.6374   15.2080  -12.9343 O   0  0  0  0  0  0  0  0  0  0  0  0
   -3.2854   14.1223  -12.1198 C   0  0  0  0  0  0  0  0  0  0  0  0
   -4.5109   13.8217  -11.2574 C   0  0  0  0  0  0  0  0  0  0  0  0
   -6.0481   12.2112   -9.8721 H   0  0  0  0  0  0  0  0  0  0  0  0
   -8.2018   10.0931  -13.8843 H   0  0  0  0  0  0  0  0  0  0  0  0
   -7.7253   12.4980  -13.5014 H   0  0  0  0  0  0  0  0  0  0  0  0
   -6.2248   11.5719  -13.8442 H   0  0  0  0  0  0  0  0  0  0  0  0
   -8.0292    9.5839   -7.2507 H   0  0  0  0  0  0  0  0  0  0  0  0
   -4.8756    8.7823   -8.4819 H   0  0  0  0  0  0  0  0  0  0  0  0
   -2.6674    9.7693   -8.0332 H   0  0  0  0  0  0  0  0  0  0  0  0
   -4.5421   13.2987   -6.4789 H   0  0  0  0  0  0  0  0  0  0  0  0
   -6.3960   12.4483   -7.8331 H   0  0  0  0  0  0  0  0  0  0  0  0
   -6.3899   11.7102   -6.1955 H   0  0  0  0  0  0  0  0  0  0  0  0
   -2.4737   14.2103   -6.1456 H   0  0  0  0  0  0  0  0  0  0  0  0
   -0.6522   10.6178   -7.5964 H   0  0  0  0  0  0  0  0  0  0  0  0
    1.4382   14.3462   -6.0082 H   0  0  0  0  0  0  0  0  0  0  0  0
    0.1696   15.4967   -6.5499 H   0  0  0  0  0  0  0  0  0  0  0  0
    0.1274   14.8336   -4.8810 H   0  0  0  0  0  0  0  0  0  0  0  0
   -6.6284   14.1271  -13.8790 H   0  0  0  0  0  0  0  0  0  0  0  0
   -6.2658   15.4268  -12.6932 H   0  0  0  0  0  0  0  0  0  0  0  0
   -4.2565   13.9474  -14.4640 H   0  0  0  0  0  0  0  0  0  0  0  0
   -4.7758   15.6607  -14.6111 H   0  0  0  0  0  0  0  0  0  0  0  0
   -3.0304   13.2488  -12.7378 H   0  0  0  0  0  0  0  0  0  0  0  0
   -2.4269   14.3849  -11.4842 H   0  0  0  0  0  0  0  0  0  0  0  0
   -4.7488   14.7031  -10.6438 H   0  0  0  0  0  0  0  0  0  0  0  0
   -4.2928   12.9662  -10.6013 H   0  0  0  0  0  0  0  0  0  0  0  0
  1  2  2  0  0  0  0
  1  4  1  0  0  0  0
  1 11  1  0  0  0  0
  2  6  1  0  0  0  0
  3  4  1  0  0  0  0
  3  5  2  0  0  0  0
  5  6  1  0  0  0  0
  5  9  1  0  0  0  0
  6  7  2  0  0  0  0
  7  8  1  0  0  0  0
  7 10  1  0  0  0  0
  8  9  2  0  0  0  0
 10 12  2  3  0  0  0
 11 24  1  0  0  0  0
 11 28  1  0  0  0  0
 12 13  1  0  0  0  0
 12 17  1  0  0  0  0
 13 14  2  0  0  0  0
 14 15  1  0  0  0  0
 15 16  2  0  0  0  0
 15 18  1  0  0  0  0
 16 17  1  0  0  0  0
 18 19  2  0  0  0  0
 18 22  1  0  0  0  0
 19 20  1  0  0  0  0
 20 21  1  0  0  0  0
 20 23  1  0  0  0  0
 21 22  2  0  0  0  0
 24 25  1  0  0  0  0
 25 26  1  0  0  0  0
 26 27  1  0  0  0  0
 27 28  1  0  0  0  0
  2 29  1  0  0  0  0
  3 30  1  0  0  0  0
  4 31  1  0  0  0  0
  4 32  1  0  0  0  0
 10 33  1  0  0  0  0
 13 34  1  0  0  0  0
 14 35  1  0  0  0  0
 16 36  1  0  0  0  0
 17 37  1  0  0  0  0
 17 38  1  0  0  0  0
 19 39  1  0  0  0  0
 22 40  1  0  0  0  0
 23 41  1  0  0  0  0
 23 42  1  0  0  0  0
 23 43  1  0  0  0  0
 24 44  1  0  0  0  0
 24 45  1  0  0  0  0
 25 46  1  0  0  0  0
 25 47  1  0  0  0  0
 27 48  1  0  0  0  0
 27 49  1  0  0  0  0
 28 50  1  0  0  0  0
 28 51  1  0  0  0  0
M  END
> <Name>
28

> <IC50[uM]>
30

$$$$
28
  -OEChem-05192314333D
 Structure written by MMmdl.
 51 55  0     0  0  0  0  0  0999 V2000
   -6.4084   12.3297  -11.9887 C   0  0  0  0  0  0  0  0  0  0  0  0
   -6.5165   11.7544  -10.7314 C   0  0  0  0  0  0  0  0  0  0  0  0
   -7.7418   10.5517  -13.0215 C   0  0  0  0  0  0  0  0  0  0  0  0
   -7.0245   11.7463  -13.1093 C   0  0  0  0  0  0  0  0  0  0  0  0
   -7.8268    9.9859  -11.7428 C   0  0  0  0  0  0  0  0  0  0  0  0
   -7.2396   10.5800  -10.6042 C   0  0  0  0  0  0  0  0  0  0  0  0
   -7.6095    9.7151   -9.5092 C   0  0  0  0  0  0  0  0  0  0  0  0
   -8.2849    8.7010   -9.9773 N   0  0  0  0  0  0  0  0  0  0  0  0
   -8.4373    8.8403  -11.2922 N   0  0  0  0  0  0  0  0  0  0  0  0
   -7.3311    9.8727   -8.0225 C   0  0  0  0  0  0  0  0  0  0  0  0
   -5.6734   13.4955  -12.1182 N   0  0  0  0  0  0  0  0  0  0  0  0
   -5.9616   10.4819   -7.7358 C   0  0  0  0  0  0  0  0  0  0  0  0
   -4.8034    9.7678   -8.0459 C   0  0  0  0  0  0  0  0  0  0  0  0
   -3.5615   10.3255   -7.7934 C   0  0  0  0  0  0  0  0  0  0  0  0
   -3.4526   11.6006   -7.2315 C   0  0  0  0  0  0  0  0  0  0  0  0
   -4.6161   12.3136   -6.9153 C   0  0  0  0  0  0  0  0  0  0  0  0
   -5.8662   11.7565   -7.1617 C   0  0  0  0  0  0  0  0  0  0  0  0
   -2.1079   12.1894   -6.9634 C   0  0  0  0  0  0  0  0  0  0  0  0
   -1.7834   13.4363   -6.4469 C   0  0  0  0  0  0  0  0  0  0  0  0
   -0.4443   13.4911   -6.3955 N   0  0  0  0  0  0  0  0  0  0  0  0
    0.1636   12.4174   -6.8067 N   0  0  0  0  0  0  0  0  0  0  0  0
   -0.8107   11.6018   -7.1804 C   0  0  0  0  0  0  0  0  0  0  0  0
    0.3735   14.6113   -5.9298 C   0  0  0  0  0  0  0  0  0  0  0  0
   -5.8857   14.5071  -13.1620 C   0  0  0  0  0  0  0  0  0  0  0  0
   -4.6042   14.8313  -13.9092 C   0  0  0  0  0  0  0  0  0  0  0  0
   -3.6374   15.2080  -12.9343 O   0  0  0  0  0  0  0  0  0  0  0  0
   -3.2854   14.1223  -12.1198 C   0  0  0  0  0  0  0  0  0  0  0  0
   -4.5109   13.8217  -11.2574 C   0  0  0  0  0  0  0  0  0  0  0  0
   -5.4950   11.5470  -10.3798 H   0  0  0  0  0  0  0  0  0  0  0  0
   -6.9870   12.4990  -10.0725 H   0  0  0  0  0  0  0  0  0  0  0  0
   -8.2018   10.0931  -13.8843 H   0  0  0  0  0  0  0  0  0  0  0  0
   -6.9404   12.2372  -14.0676 H   0  0  0  0  0  0  0  0  0  0  0  0
   -8.0292    9.5839   -7.2507 H   0  0  0  0  0  0  0  0  0  0  0  0
   -4.8756    8.7823   -8.4819 H   0  0  0  0  0  0  0  0  0  0  0  0
   -2.6674    9.7693   -8.0332 H   0  0  0  0  0  0  0  0  0  0  0  0
   -3.4498   12.0463   -8.2372 H   0  0  0  0  0  0  0  0  0  0  0  0
   -4.5421   13.2987   -6.4789 H   0  0  0  0  0  0  0  0  0  0  0  0
   -6.7619   12.3053   -6.9110 H   0  0  0  0  0  0  0  0  0  0  0  0
   -2.4737   14.2103   -6.1456 H   0  0  0  0  0  0  0  0  0  0  0  0
   -0.6522   10.6178   -7.5964 H   0  0  0  0  0  0  0  0  0  0  0  0
    1.4382   14.3462   -6.0082 H   0  0  0  0  0  0  0  0  0  0  0  0
    0.1696   15.4967   -6.5499 H   0  0  0  0  0  0  0  0  0  0  0  0
    0.1274   14.8336   -4.8810 H   0  0  0  0  0  0  0  0  0  0  0  0
   -6.6284   14.1271  -13.8790 H   0  0  0  0  0  0  0  0  0  0  0  0
   -6.2658   15.4268  -12.6932 H   0  0  0  0  0  0  0  0  0  0  0  0
   -4.2565   13.9474  -14.4640 H   0  0  0  0  0  0  0  0  0  0  0  0
   -4.7758   15.6607  -14.6111 H   0  0  0  0  0  0  0  0  0  0  0  0
   -3.0304   13.2488  -12.7378 H   0  0  0  0  0  0  0  0  0  0  0  0
   -2.4269   14.3849  -11.4842 H   0  0  0  0  0  0  0  0  0  0  0  0
   -4.7488   14.7031  -10.6438 H   0  0  0  0  0  0  0  0  0  0  0  0
   -4.2928   12.9662  -10.6013 H   0  0  0  0  0  0  0  0  0  0  0  0
  1  2  1  0  0  0  0
  1  4  2  0  0  0  0
  1 11  1  0  0  0  0
  2  6  1  0  0  0  0
  3  4  1  0  0  0  0
  3  5  2  0  0  0  0
  5  6  1  0  0  0  0
  5  9  1  0  0  0  0
  6  7  2  0  0  0  0
  7  8  1  0  0  0  0
  7 10  1  0  0  0  0
  8  9  2  0  0  0  0
 10 12  2  0  0  0  0
 11 24  1  0  0  0  0
 11 28  1  0  0  0  0
 12 13  1  0  0  0  0
 12 17  1  0  0  0  0
 13 14  2  0  0  0  0
 14 15  1  0  0  0  0
 15 16  1  0  0  0  0
 15 18  1  0  0  0  0
 16 17  2  0  0  0  0
 18 19  2  0  0  0  0
 18 22  1  0  0  0  0
 19 20  1  0  0  0  0
 20 21  1  0  0  0  0
 20 23  1  0  0  0  0
 21 22  2  0  0  0  0
 24 25  1  0  0  0  0
 25 26  1  0  0  0  0
 26 27  1  0  0  0  0
 27 28  1  0  0  0  0
  2 29  1  0  0  0  0
  2 30  1  0  0  0  0
  3 31  1  0  0  0  0
  4 32  1  0  0  0  0
 10 33  1  0  0  0  0
 13 34  1  0  0  0  0
 14 35  1  0  0  0  0
 15 36  1  0  0  0  0
 16 37  1  0  0  0  0
 17 38  1  0  0  0  0
 19 39  1  0  0  0  0
 22 40  1  0  0  0  0
 23 41  1  0  0  0  0
 23 42  1  0  0  0  0
 23 43  1  0  0  0  0
 24 44  1  0  0  0  0
 24 45  1  0  0  0  0
 25 46  1  0  0  0  0
 25 47  1  0  0  0  0
 27 48  1  0  0  0  0
 27 49  1  0  0  0  0
 28 50  1  0  0  0  0
 28 51  1  0  0  0  0
M  END
> <Name>
28

> <IC50[uM]>
30

$$$$
28
  -OEChem-05192314333D
 Structure written by MMmdl.
 51 55  0     0  0  0  0  0  0999 V2000
   -6.4084   12.3297  -11.9887 C   0  0  0  0  0  0  0  0  0  0  0  0
   -6.5165   11.7544  -10.7314 C   0  0  0  0  0  0  0  0  0  0  0  0
   -7.7418   10.5517  -13.0215 C   0  0  0  0  0  0  0  0  0  0  0  0
   -7.0245   11.7463  -13.1093 C   0  0  0  0  0  0  0  0  0  0  0  0
   -7.8268    9.9859  -11.7428 C   0  0  0  0  0  0  0  0  0  0  0  0
   -7.2396   10.5800  -10.6042 C   0  0  0  0  0  0  0  0  0  0  0  0
   -7.6095    9.7151   -9.5092 C   0  0  0  0  0  0  0  0  0  0  0  0
   -8.2849    8.7010   -9.9773 N   0  0  0  0  0  0  0  0  0  0  0  0
   -8.4373    8.8403  -11.2922 N   0  0  0  0  0  0  0  0  0  0  0  0
   -7.3311    9.8727   -8.0225 C   0  0  0  0  0  0  0  0  0  0  0  0
   -5.6734   13.4955  -12.1182 N   0  0  0  0  0  0  0  0  0  0  0  0
   -5.9616   10.4819   -7.7358 C   0  0  0  0  0  0  0  0  0  0  0  0
   -4.8034    9.7678   -8.0459 C   0  0  0  0  0  0  0  0  0  0  0  0
   -3.5615   10.3255   -7.7934 C   0  0  0  0  0  0  0  0  0  0  0  0
   -3.4526   11.6006   -7.2315 C   0  0  0  0  0  0  0  0  0  0  0  0
   -4.6161   12.3136   -6.9153 C   0  0  0  0  0  0  0  0  0  0  0  0
   -5.8662   11.7565   -7.1617 C   0  0  0  0  0  0  0  0  0  0  0  0
   -2.1079   12.1894   -6.9634 C   0  0  0  0  0  0  0  0  0  0  0  0
   -1.7834   13.4363   -6.4469 C   0  0  0  0  0  0  0  0  0  0  0  0
   -0.4443   13.4911   -6.3955 N   0  0  0  0  0  0  0  0  0  0  0  0
    0.1636   12.4174   -6.8067 N   0  0  0  0  0  0  0  0  0  0  0  0
   -0.8107   11.6018   -7.1804 C   0  0  0  0  0  0  0  0  0  0  0  0
    0.3735   14.6113   -5.9298 C   0  0  0  0  0  0  0  0  0  0  0  0
   -5.8857   14.5071  -13.1620 C   0  0  0  0  0  0  0  0  0  0  0  0
   -4.6042   14.8313  -13.9092 C   0  0  0  0  0  0  0  0  0  0  0  0
   -3.6374   15.2080  -12.9343 O   0  0  0  0  0  0  0  0  0  0  0  0
   -3.2854   14.1223  -12.1198 C   0  0  0  0  0  0  0  0  0  0  0  0
   -4.5109   13.8217  -11.2574 C   0  0  0  0  0  0  0  0  0  0  0  0
   -5.4950   11.5470  -10.3798 H   0  0  0  0  0  0  0  0  0  0  0  0
   -6.9870   12.4990  -10.0725 H   0  0  0  0  0  0  0  0  0  0  0  0
   -8.2018   10.0931  -13.8843 H   0  0  0  0  0  0  0  0  0  0  0  0
   -6.9404   12.2372  -14.0676 H   0  0  0  0  0  0  0  0  0  0  0  0
   -8.0292    9.5839   -7.2507 H   0  0  0  0  0  0  0  0  0  0  0  0
   -4.8756    8.7823   -8.4819 H   0  0  0  0  0  0  0  0  0  0  0  0
   -2.6674    9.7693   -8.0332 H   0  0  0  0  0  0  0  0  0  0  0  0
   -4.5421   13.2987   -6.4789 H   0  0  0  0  0  0  0  0  0  0  0  0
   -6.3960   12.4483   -7.8331 H   0  0  0  0  0  0  0  0  0  0  0  0
   -6.3899   11.7102   -6.1955 H   0  0  0  0  0  0  0  0  0  0  0  0
   -2.4737   14.2103   -6.1456 H   0  0  0  0  0  0  0  0  0  0  0  0
   -0.6522   10.6178   -7.5964 H   0  0  0  0  0  0  0  0  0  0  0  0
    1.4382   14.3462   -6.0082 H   0  0  0  0  0  0  0  0  0  0  0  0
    0.1696   15.4967   -6.5499 H   0  0  0  0  0  0  0  0  0  0  0  0
    0.1274   14.8336   -4.8810 H   0  0  0  0  0  0  0  0  0  0  0  0
   -6.6284   14.1271  -13.8790 H   0  0  0  0  0  0  0  0  0  0  0  0
   -6.2658   15.4268  -12.6932 H   0  0  0  0  0  0  0  0  0  0  0  0
   -4.2565   13.9474  -14.4640 H   0  0  0  0  0  0  0  0  0  0  0  0
   -4.7758   15.6607  -14.6111 H   0  0  0  0  0  0  0  0  0  0  0  0
   -3.0304   13.2488  -12.7378 H   0  0  0  0  0  0  0  0  0  0  0  0
   -2.4269   14.3849  -11.4842 H   0  0  0  0  0  0  0  0  0  0  0  0
   -4.7488   14.7031  -10.6438 H   0  0  0  0  0  0  0  0  0  0  0  0
   -4.2928   12.9662  -10.6013 H   0  0  0  0  0  0  0  0  0  0  0  0
  1  2  1  0  0  0  0
  1  4  2  0  0  0  0
  1 11  1  0  0  0  0
  2  6  1  0  0  0  0
  3  4  1  0  0  0  0
  3  5  2  0  0  0  0
  5  6  1  0  0  0  0
  5  9  1  0  0  0  0
  6  7  2  0  0  0  0
  7  8  1  0  0  0  0
  7 10  1  0  0  0  0
  8  9  2  0  0  0  0
 10 12  2  3  0  0  0
 11 24  1  0  0  0  0
 11 28  1  0  0  0  0
 12 13  1  0  0  0  0
 12 17  1  0  0  0  0
 13 14  2  0  0  0  0
 14 15  1  0  0  0  0
 15 16  2  0  0  0  0
 15 18  1  0  0  0  0
 16 17  1  0  0  0  0
 18 19  2  0  0  0  0
 18 22  1  0  0  0  0
 19 20  1  0  0  0  0
 20 21  1  0  0  0  0
 20 23  1  0  0  0  0
 21 22  2  0  0  0  0
 24 25  1  0  0  0  0
 25 26  1  0  0  0  0
 26 27  1  0  0  0  0
 27 28  1  0  0  0  0
  2 29  1  0  0  0  0
  2 30  1  0  0  0  0
  3 31  1  0  0  0  0
  4 32  1  0  0  0  0
 10 33  1  0  0  0  0
 13 34  1  0  0  0  0
 14 35  1  0  0  0  0
 16 36  1  0  0  0  0
 17 37  1  0  0  0  0
 17 38  1  0  0  0  0
 19 39  1  0  0  0  0
 22 40  1  0  0  0  0
 23 41  1  0  0  0  0
 23 42  1  0  0  0  0
 23 43  1  0  0  0  0
 24 44  1  0  0  0  0
 24 45  1  0  0  0  0
 25 46  1  0  0  0  0
 25 47  1  0  0  0  0
 27 48  1  0  0  0  0
 27 49  1  0  0  0  0
 28 50  1  0  0  0  0
 28 51  1  0  0  0  0
M  END
> <Name>
28

> <IC50[uM]>
30

$$$$
