CHEMBL1082249
  -OEChem-05192314313D
 Structure written by MMmdl.
 57 60  0     1  0  0  0  0  0999 V2000
   16.4793   -7.2843   11.3165 C   0  0  0  0  0  0  0  0  0  0  0  0
   15.3531   -6.5124   10.6819 C   0  0  0  0  0  0  0  0  0  0  0  0
   14.3425   -6.2284   11.3248 O   0  0  0  0  0  0  0  0  0  0  0  0
   15.5705   -6.1542    9.4074 N   0  0  0  0  0  0  0  0  0  0  0  0
   14.6248   -5.4276    8.5868 C   0  0  0  0  0  0  0  0  0  0  0  0
   15.3309   -4.6310    7.4948 C   0  0  0  0  0  0  0  0  0  0  0  0
   14.2349   -3.9683    6.6666 N   0  0  0  0  0  0  0  0  0  0  0  0
   14.7037   -3.0483    5.5326 C   0  0  0  0  0  0  0  0  0  0  0  0
   14.9054   -3.7819    4.1884 C   0  0  1  0  0  0  0  0  0  0  0  0
   15.0841   -5.3250    4.2406 C   0  0  0  0  0  0  0  0  0  0  0  0
   15.2163   -5.9084    2.8271 C   0  0  0  0  0  0  0  0  0  0  0  0
   14.0959   -5.4139    1.8851 C   0  0  1  0  0  0  0  0  0  0  0  0
   12.7047   -6.0683    2.1278 C   0  0  2  0  0  0  0  0  0  0  0  0
   12.7518   -7.5911    2.0333 C   0  0  0  0  0  0  0  0  0  0  0  0
   12.3185   -8.3767    3.1031 C   0  0  0  0  0  0  0  0  0  0  0  0
   12.3947   -9.7647    3.0181 C   0  0  0  0  0  0  0  0  0  0  0  0
   12.8984  -10.3649    1.8672 C   0  0  0  0  0  0  0  0  0  0  0  0
   13.3180   -9.5891    0.7918 C   0  0  0  0  0  0  0  0  0  0  0  0
   13.2433   -8.2036    0.8752 C   0  0  0  0  0  0  0  0  0  0  0  0
   11.7323   -5.5141    1.1851 N   0  0  0  0  0  0  0  0  0  0  0  0
   11.7964   -4.1649    0.7844 C   0  0  0  0  0  0  0  0  0  0  0  0
   10.7831   -3.6789   -0.0372 C   0  0  0  0  0  0  0  0  0  0  0  0
    9.7490   -4.4602   -0.3161 F   0  0  0  0  0  0  0  0  0  0  0  0
   10.8205   -2.3838   -0.5398 C   0  0  0  0  0  0  0  0  0  0  0  0
   11.8667   -1.5519   -0.1779 C   0  0  0  0  0  0  0  0  0  0  0  0
   11.9398    0.2253   -0.8395 Br  0  0  0  0  0  0  0  0  0  0  0  0
   12.8708   -2.0181    0.6698 C   0  0  0  0  0  0  0  0  0  0  0  0
   12.8692   -3.3398    1.1350 C   0  0  0  0  0  0  0  0  0  0  0  0
   14.0156   -3.8713    1.9784 C   0  0  1  0  0  0  0  0  0  0  0  0
   13.8110   -3.4596    3.3295 O   0  0  0  0  0  0  0  0  0  0  0  0
   16.2254   -7.5111   12.3625 H   0  0  0  0  0  0  0  0  0  0  0  0
   16.6362   -8.2234   10.7655 H   0  0  0  0  0  0  0  0  0  0  0  0
   17.3996   -6.6825   11.2849 H   0  0  0  0  0  0  0  0  0  0  0  0
   16.4463   -6.4065    8.9959 H   0  0  0  0  0  0  0  0  0  0  0  0
   13.9343   -6.1438    8.1174 H   0  0  0  0  0  0  0  0  0  0  0  0
   14.0565   -4.7345    9.2245 H   0  0  0  0  0  0  0  0  0  0  0  0
   15.9833   -3.8671    7.9429 H   0  0  0  0  0  0  0  0  0  0  0  0
   15.9319   -5.3017    6.8631 H   0  0  0  0  0  0  0  0  0  0  0  0
   13.6789   -4.6936    6.2606 H   0  0  0  0  0  0  0  0  0  0  0  0
   13.9500   -2.2600    5.3895 H   0  0  0  0  0  0  0  0  0  0  0  0
   15.6602   -2.5919    5.8273 H   0  0  0  0  0  0  0  0  0  0  0  0
   15.8235   -3.3742    3.7403 H   0  0  0  0  0  0  0  0  0  0  0  0
   15.9914   -5.5634    4.8151 H   0  0  0  0  0  0  0  0  0  0  0  0
   14.2091   -5.7725    4.7347 H   0  0  0  0  0  0  0  0  0  0  0  0
   16.1886   -5.6083    2.4094 H   0  0  0  0  0  0  0  0  0  0  0  0
   15.1674   -7.0055    2.8906 H   0  0  0  0  0  0  0  0  0  0  0  0
   14.3980   -5.6640    0.8574 H   0  0  0  0  0  0  0  0  0  0  0  0
   12.3912   -5.8052    3.1488 H   0  0  0  0  0  0  0  0  0  0  0  0
   11.9254   -7.9094    3.9939 H   0  0  0  0  0  0  0  0  0  0  0  0
   12.0631  -10.3754    3.8448 H   0  0  0  0  0  0  0  0  0  0  0  0
   12.9638  -11.4413    1.8091 H   0  0  0  0  0  0  0  0  0  0  0  0
   13.6993  -10.0601   -0.1022 H   0  0  0  0  0  0  0  0  0  0  0  0
   13.5662   -7.5969    0.0421 H   0  0  0  0  0  0  0  0  0  0  0  0
   11.8011   -6.0617    0.3512 H   0  0  0  0  0  0  0  0  0  0  0  0
   10.0447   -2.0312   -1.2032 H   0  0  0  0  0  0  0  0  0  0  0  0
   13.6629   -1.3494    0.9728 H   0  0  0  0  0  0  0  0  0  0  0  0
   14.9582   -3.4518    1.5968 H   0  0  0  0  0  0  0  0  0  0  0  0
  1  2  1  0  0  0  0
  2  3  2  0  0  0  0
  2  4  1  0  0  0  0
  4  5  1  0  0  0  0
  5  6  1  0  0  0  0
  6  7  1  0  0  0  0
  7  8  1  0  0  0  0
  8  9  1  0  0  0  0
  9 10  1  0  0  0  0
  9 30  1  0  0  0  0
 10 11  1  0  0  0  0
 11 12  1  0  0  0  0
 12 13  1  0  0  0  0
 12 29  1  0  0  0  0
 13 14  1  0  0  0  0
 13 20  1  0  0  0  0
 14 15  2  0  0  0  0
 14 19  1  0  0  0  0
 15 16  1  0  0  0  0
 16 17  2  0  0  0  0
 17 18  1  0  0  0  0
 18 19  2  0  0  0  0
 20 21  1  0  0  0  0
 21 22  2  0  0  0  0
 21 28  1  0  0  0  0
 22 23  1  0  0  0  0
 22 24  1  0  0  0  0
 24 25  2  0  0  0  0
 25 26  1  0  0  0  0
 25 27  1  0  0  0  0
 27 28  2  0  0  0  0
 28 29  1  0  0  0  0
 29 30  1  0  0  0  0
  1 31  1  0  0  0  0
  1 32  1  0  0  0  0
  1 33  1  0  0  0  0
  4 34  1  0  0  0  0
  5 35  1  0  0  0  0
  5 36  1  0  0  0  0
  6 37  1  0  0  0  0
  6 38  1  0  0  0  0
  7 39  1  0  0  0  0
  8 40  1  0  0  0  0
  8 41  1  0  0  0  0
  9 42  1  0  0  0  0
 10 43  1  0  0  0  0
 10 44  1  0  0  0  0
 11 45  1  0  0  0  0
 11 46  1  0  0  0  0
 12 47  1  0  0  0  0
 13 48  1  0  0  0  0
 15 49  1  0  0  0  0
 16 50  1  0  0  0  0
 17 51  1  0  0  0  0
 18 52  1  0  0  0  0
 19 53  1  0  0  0  0
 20 54  1  0  0  0  0
 24 55  1  0  0  0  0
 27 56  1  0  0  0  0
 29 57  1  0  0  0  0
M  END
> <ID>
CHEMBL1082249

> <IC50[nM]>
6

$$$$
CHEMBL1082249
  -OEChem-05192314313D
 Structure written by MMmdl.
 57 60  0     1  0  0  0  0  0999 V2000
   16.4793   -7.2843   11.3165 C   0  0  0  0  0  0  0  0  0  0  0  0
   15.3531   -6.5124   10.6819 C   0  0  0  0  0  0  0  0  0  0  0  0
   14.3425   -6.2284   11.3248 O   0  0  0  0  0  0  0  0  0  0  0  0
   15.5705   -6.1542    9.4074 N   0  0  0  0  0  0  0  0  0  0  0  0
   14.6248   -5.4276    8.5868 C   0  0  0  0  0  0  0  0  0  0  0  0
   15.3309   -4.6310    7.4948 C   0  0  0  0  0  0  0  0  0  0  0  0
   14.2349   -3.9683    6.6666 N   0  0  0  0  0  0  0  0  0  0  0  0
   14.7037   -3.0483    5.5326 C   0  0  0  0  0  0  0  0  0  0  0  0
   14.9054   -3.7819    4.1884 C   0  0  1  0  0  0  0  0  0  0  0  0
   15.0841   -5.3250    4.2406 C   0  0  0  0  0  0  0  0  0  0  0  0
   15.2163   -5.9084    2.8271 C   0  0  0  0  0  0  0  0  0  0  0  0
   14.0959   -5.4139    1.8851 C   0  0  1  0  0  0  0  0  0  0  0  0
   12.7047   -6.0683    2.1278 C   0  0  2  0  0  0  0  0  0  0  0  0
   12.7518   -7.5911    2.0333 C   0  0  0  0  0  0  0  0  0  0  0  0
   12.3185   -8.3767    3.1031 C   0  0  0  0  0  0  0  0  0  0  0  0
   12.3947   -9.7647    3.0181 C   0  0  0  0  0  0  0  0  0  0  0  0
   12.8984  -10.3649    1.8672 C   0  0  0  0  0  0  0  0  0  0  0  0
   13.3180   -9.5891    0.7918 C   0  0  0  0  0  0  0  0  0  0  0  0
   13.2433   -8.2036    0.8752 C   0  0  0  0  0  0  0  0  0  0  0  0
   11.7323   -5.5141    1.1851 N   0  0  0  0  0  0  0  0  0  0  0  0
   11.7964   -4.1649    0.7844 C   0  0  0  0  0  0  0  0  0  0  0  0
   10.7831   -3.6789   -0.0372 C   0  0  0  0  0  0  0  0  0  0  0  0
    9.7490   -4.4602   -0.3161 F   0  0  0  0  0  0  0  0  0  0  0  0
   10.8205   -2.3838   -0.5398 C   0  0  0  0  0  0  0  0  0  0  0  0
   11.8667   -1.5519   -0.1779 C   0  0  0  0  0  0  0  0  0  0  0  0
   11.9398    0.2253   -0.8395 Br  0  0  0  0  0  0  0  0  0  0  0  0
   12.8708   -2.0181    0.6698 C   0  0  0  0  0  0  0  0  0  0  0  0
   12.8692   -3.3398    1.1350 C   0  0  0  0  0  0  0  0  0  0  0  0
   14.0156   -3.8713    1.9784 C   0  0  1  0  0  0  0  0  0  0  0  0
   13.8110   -3.4596    3.3295 O   0  0  0  0  0  0  0  0  0  0  0  0
   17.2826   -7.4340   10.5800 H   0  0  0  0  0  0  0  0  0  0  0  0
   16.8708   -6.7211   12.1765 H   0  0  0  0  0  0  0  0  0  0  0  0
   16.1074   -8.2619   11.6571 H   0  0  0  0  0  0  0  0  0  0  0  0
   13.7407   -5.7439   10.7720 H   0  0  0  0  0  0  0  0  0  0  0  0
   13.9343   -6.1438    8.1174 H   0  0  0  0  0  0  0  0  0  0  0  0
   14.0565   -4.7345    9.2245 H   0  0  0  0  0  0  0  0  0  0  0  0
   15.9833   -3.8671    7.9429 H   0  0  0  0  0  0  0  0  0  0  0  0
   15.9319   -5.3017    6.8631 H   0  0  0  0  0  0  0  0  0  0  0  0
   13.6789   -4.6936    6.2606 H   0  0  0  0  0  0  0  0  0  0  0  0
   13.9500   -2.2600    5.3895 H   0  0  0  0  0  0  0  0  0  0  0  0
   15.6602   -2.5919    5.8273 H   0  0  0  0  0  0  0  0  0  0  0  0
   15.8235   -3.3742    3.7403 H   0  0  0  0  0  0  0  0  0  0  0  0
   15.9914   -5.5634    4.8151 H   0  0  0  0  0  0  0  0  0  0  0  0
   14.2091   -5.7725    4.7347 H   0  0  0  0  0  0  0  0  0  0  0  0
   16.1886   -5.6083    2.4094 H   0  0  0  0  0  0  0  0  0  0  0  0
   15.1674   -7.0055    2.8906 H   0  0  0  0  0  0  0  0  0  0  0  0
   14.3980   -5.6640    0.8574 H   0  0  0  0  0  0  0  0  0  0  0  0
   12.3912   -5.8052    3.1488 H   0  0  0  0  0  0  0  0  0  0  0  0
   11.9254   -7.9094    3.9939 H   0  0  0  0  0  0  0  0  0  0  0  0
   12.0631  -10.3754    3.8448 H   0  0  0  0  0  0  0  0  0  0  0  0
   12.9638  -11.4413    1.8091 H   0  0  0  0  0  0  0  0  0  0  0  0
   13.6993  -10.0601   -0.1022 H   0  0  0  0  0  0  0  0  0  0  0  0
   13.5662   -7.5969    0.0421 H   0  0  0  0  0  0  0  0  0  0  0  0
   11.8011   -6.0617    0.3512 H   0  0  0  0  0  0  0  0  0  0  0  0
   10.0447   -2.0312   -1.2032 H   0  0  0  0  0  0  0  0  0  0  0  0
   13.6629   -1.3494    0.9728 H   0  0  0  0  0  0  0  0  0  0  0  0
   14.9582   -3.4518    1.5968 H   0  0  0  0  0  0  0  0  0  0  0  0
  1  2  1  0  0  0  0
  2  3  1  0  0  0  0
  2  4  2  0  0  0  0
  4  5  1  0  0  0  0
  5  6  1  0  0  0  0
  6  7  1  0  0  0  0
  7  8  1  0  0  0  0
  8  9  1  0  0  0  0
  9 10  1  0  0  0  0
  9 30  1  0  0  0  0
 10 11  1  0  0  0  0
 11 12  1  0  0  0  0
 12 13  1  0  0  0  0
 12 29  1  0  0  0  0
 13 14  1  0  0  0  0
 13 20  1  0  0  0  0
 14 15  2  0  0  0  0
 14 19  1  0  0  0  0
 15 16  1  0  0  0  0
 16 17  2  0  0  0  0
 17 18  1  0  0  0  0
 18 19  2  0  0  0  0
 20 21  1  0  0  0  0
 21 22  2  0  0  0  0
 21 28  1  0  0  0  0
 22 23  1  0  0  0  0
 22 24  1  0  0  0  0
 24 25  2  0  0  0  0
 25 26  1  0  0  0  0
 25 27  1  0  0  0  0
 27 28  2  0  0  0  0
 28 29  1  0  0  0  0
 29 30  1  0  0  0  0
  1 31  1  0  0  0  0
  1 32  1  0  0  0  0
  1 33  1  0  0  0  0
  3 34  1  0  0  0  0
  5 35  1  0  0  0  0
  5 36  1  0  0  0  0
  6 37  1  0  0  0  0
  6 38  1  0  0  0  0
  7 39  1  0  0  0  0
  8 40  1  0  0  0  0
  8 41  1  0  0  0  0
  9 42  1  0  0  0  0
 10 43  1  0  0  0  0
 10 44  1  0  0  0  0
 11 45  1  0  0  0  0
 11 46  1  0  0  0  0
 12 47  1  0  0  0  0
 13 48  1  0  0  0  0
 15 49  1  0  0  0  0
 16 50  1  0  0  0  0
 17 51  1  0  0  0  0
 18 52  1  0  0  0  0
 19 53  1  0  0  0  0
 20 54  1  0  0  0  0
 24 55  1  0  0  0  0
 27 56  1  0  0  0  0
 29 57  1  0  0  0  0
M  END
> <ID>
CHEMBL1082249

> <IC50[nM]>
6

$$$$
CHEMBL1082249
  -OEChem-05192314313D
 Structure written by MMmdl.
 57 60  0     1  0  0  0  0  0999 V2000
   16.4793   -7.2843   11.3165 C   0  0  0  0  0  0  0  0  0  0  0  0
   15.3531   -6.5124   10.6819 C   0  0  0  0  0  0  0  0  0  0  0  0
   14.3425   -6.2284   11.3248 O   0  0  0  0  0  0  0  0  0  0  0  0
   15.5705   -6.1542    9.4074 N   0  0  0  0  0  0  0  0  0  0  0  0
   14.6248   -5.4276    8.5868 C   0  0  0  0  0  0  0  0  0  0  0  0
   15.3309   -4.6310    7.4948 C   0  0  0  0  0  0  0  0  0  0  0  0
   14.2349   -3.9683    6.6666 N   0  0  0  0  0  0  0  0  0  0  0  0
   14.7037   -3.0483    5.5326 C   0  0  0  0  0  0  0  0  0  0  0  0
   14.9054   -3.7819    4.1884 C   0  0  1  0  0  0  0  0  0  0  0  0
   15.0841   -5.3250    4.2406 C   0  0  0  0  0  0  0  0  0  0  0  0
   15.2163   -5.9084    2.8271 C   0  0  0  0  0  0  0  0  0  0  0  0
   14.0959   -5.4139    1.8851 C   0  0  1  0  0  0  0  0  0  0  0  0
   12.7047   -6.0683    2.1278 C   0  0  2  0  0  0  0  0  0  0  0  0
   12.7518   -7.5911    2.0333 C   0  0  0  0  0  0  0  0  0  0  0  0
   12.3185   -8.3767    3.1031 C   0  0  0  0  0  0  0  0  0  0  0  0
   12.3947   -9.7647    3.0181 C   0  0  0  0  0  0  0  0  0  0  0  0
   12.8984  -10.3649    1.8672 C   0  0  0  0  0  0  0  0  0  0  0  0
   13.3180   -9.5891    0.7918 C   0  0  0  0  0  0  0  0  0  0  0  0
   13.2433   -8.2036    0.8752 C   0  0  0  0  0  0  0  0  0  0  0  0
   11.7323   -5.5141    1.1851 N   0  0  0  0  0  0  0  0  0  0  0  0
   11.7964   -4.1649    0.7844 C   0  0  0  0  0  0  0  0  0  0  0  0
   10.7831   -3.6789   -0.0372 C   0  0  0  0  0  0  0  0  0  0  0  0
    9.7490   -4.4602   -0.3161 F   0  0  0  0  0  0  0  0  0  0  0  0
   10.8205   -2.3838   -0.5398 C   0  0  0  0  0  0  0  0  0  0  0  0
   11.8667   -1.5519   -0.1779 C   0  0  0  0  0  0  0  0  0  0  0  0
   11.9398    0.2253   -0.8395 Br  0  0  0  0  0  0  0  0  0  0  0  0
   12.8708   -2.0181    0.6698 C   0  0  0  0  0  0  0  0  0  0  0  0
   12.8692   -3.3398    1.1350 C   0  0  0  0  0  0  0  0  0  0  0  0
   14.0156   -3.8713    1.9784 C   0  0  1  0  0  0  0  0  0  0  0  0
   13.8110   -3.4596    3.3295 O   0  0  0  0  0  0  0  0  0  0  0  0
   16.2254   -7.5111   12.3625 H   0  0  0  0  0  0  0  0  0  0  0  0
   16.6362   -8.2234   10.7655 H   0  0  0  0  0  0  0  0  0  0  0  0
   17.3996   -6.6825   11.2849 H   0  0  0  0  0  0  0  0  0  0  0  0
   16.4463   -6.4065    8.9959 H   0  0  0  0  0  0  0  0  0  0  0  0
   13.9343   -6.1438    8.1174 H   0  0  0  0  0  0  0  0  0  0  0  0
   14.0565   -4.7345    9.2245 H   0  0  0  0  0  0  0  0  0  0  0  0
   15.9833   -3.8671    7.9429 H   0  0  0  0  0  0  0  0  0  0  0  0
   15.9319   -5.3017    6.8631 H   0  0  0  0  0  0  0  0  0  0  0  0
   13.6789   -4.6936    6.2606 H   0  0  0  0  0  0  0  0  0  0  0  0
   13.9500   -2.2600    5.3895 H   0  0  0  0  0  0  0  0  0  0  0  0
   15.6602   -2.5919    5.8273 H   0  0  0  0  0  0  0  0  0  0  0  0
   15.8235   -3.3742    3.7403 H   0  0  0  0  0  0  0  0  0  0  0  0
   15.9914   -5.5634    4.8151 H   0  0  0  0  0  0  0  0  0  0  0  0
   14.2091   -5.7725    4.7347 H   0  0  0  0  0  0  0  0  0  0  0  0
   16.1886   -5.6083    2.4094 H   0  0  0  0  0  0  0  0  0  0  0  0
   15.1674   -7.0055    2.8906 H   0  0  0  0  0  0  0  0  0  0  0  0
   14.3980   -5.6640    0.8574 H   0  0  0  0  0  0  0  0  0  0  0  0
   12.3912   -5.8052    3.1488 H   0  0  0  0  0  0  0  0  0  0  0  0
   11.9254   -7.9094    3.9939 H   0  0  0  0  0  0  0  0  0  0  0  0
   12.0631  -10.3754    3.8448 H   0  0  0  0  0  0  0  0  0  0  0  0
   12.9638  -11.4413    1.8091 H   0  0  0  0  0  0  0  0  0  0  0  0
   13.6993  -10.0601   -0.1022 H   0  0  0  0  0  0  0  0  0  0  0  0
   13.5662   -7.5969    0.0421 H   0  0  0  0  0  0  0  0  0  0  0  0
   10.0447   -2.0312   -1.2032 H   0  0  0  0  0  0  0  0  0  0  0  0
   11.2911   -1.2049    0.6929 H   0  0  0  0  0  0  0  0  0  0  0  0
   13.6629   -1.3494    0.9728 H   0  0  0  0  0  0  0  0  0  0  0  0
   14.9582   -3.4518    1.5968 H   0  0  0  0  0  0  0  0  0  0  0  0
  1  2  1  0  0  0  0
  2  3  2  0  0  0  0
  2  4  1  0  0  0  0
  4  5  1  0  0  0  0
  5  6  1  0  0  0  0
  6  7  1  0  0  0  0
  7  8  1  0  0  0  0
  8  9  1  0  0  0  0
  9 10  1  0  0  0  0
  9 30  1  0  0  0  0
 10 11  1  0  0  0  0
 11 12  1  0  0  0  0
 12 13  1  0  0  0  0
 12 29  1  0  0  0  0
 13 14  1  0  0  0  0
 13 20  1  0  0  0  0
 14 15  2  0  0  0  0
 14 19  1  0  0  0  0
 15 16  1  0  0  0  0
 16 17  2  0  0  0  0
 17 18  1  0  0  0  0
 18 19  2  0  0  0  0
 20 21  2  0  0  0  0
 21 22  1  0  0  0  0
 21 28  1  0  0  0  0
 22 23  1  0  0  0  0
 22 24  2  0  0  0  0
 24 25  1  0  0  0  0
 25 26  1  0  0  0  0
 25 27  1  0  0  0  0
 27 28  2  0  0  0  0
 28 29  1  0  0  0  0
 29 30  1  0  0  0  0
  1 31  1  0  0  0  0
  1 32  1  0  0  0  0
  1 33  1  0  0  0  0
  4 34  1  0  0  0  0
  5 35  1  0  0  0  0
  5 36  1  0  0  0  0
  6 37  1  0  0  0  0
  6 38  1  0  0  0  0
  7 39  1  0  0  0  0
  8 40  1  0  0  0  0
  8 41  1  0  0  0  0
  9 42  1  0  0  0  0
 10 43  1  0  0  0  0
 10 44  1  0  0  0  0
 11 45  1  0  0  0  0
 11 46  1  0  0  0  0
 12 47  1  0  0  0  0
 13 48  1  0  0  0  0
 15 49  1  0  0  0  0
 16 50  1  0  0  0  0
 17 51  1  0  0  0  0
 18 52  1  0  0  0  0
 19 53  1  0  0  0  0
 24 54  1  0  0  0  0
 25 55  1  0  0  0  0
 27 56  1  0  0  0  0
 29 57  1  0  0  0  0
M  END
> <ID>
CHEMBL1082249

> <IC50[nM]>
6

$$$$
CHEMBL1082249
  -OEChem-05192314313D
 Structure written by MMmdl.
 57 60  0     1  0  0  0  0  0999 V2000
   16.4793   -7.2843   11.3165 C   0  0  0  0  0  0  0  0  0  0  0  0
   15.3531   -6.5124   10.6819 C   0  0  0  0  0  0  0  0  0  0  0  0
   14.3425   -6.2284   11.3248 O   0  0  0  0  0  0  0  0  0  0  0  0
   15.5705   -6.1542    9.4074 N   0  0  0  0  0  0  0  0  0  0  0  0
   14.6248   -5.4276    8.5868 C   0  0  0  0  0  0  0  0  0  0  0  0
   15.3309   -4.6310    7.4948 C   0  0  0  0  0  0  0  0  0  0  0  0
   14.2349   -3.9683    6.6666 N   0  0  0  0  0  0  0  0  0  0  0  0
   14.7037   -3.0483    5.5326 C   0  0  0  0  0  0  0  0  0  0  0  0
   14.9054   -3.7819    4.1884 C   0  0  1  0  0  0  0  0  0  0  0  0
   15.0841   -5.3250    4.2406 C   0  0  0  0  0  0  0  0  0  0  0  0
   15.2163   -5.9084    2.8271 C   0  0  0  0  0  0  0  0  0  0  0  0
   14.0959   -5.4139    1.8851 C   0  0  1  0  0  0  0  0  0  0  0  0
   12.7047   -6.0683    2.1278 C   0  0  2  0  0  0  0  0  0  0  0  0
   12.7518   -7.5911    2.0333 C   0  0  0  0  0  0  0  0  0  0  0  0
   12.3185   -8.3767    3.1031 C   0  0  0  0  0  0  0  0  0  0  0  0
   12.3947   -9.7647    3.0181 C   0  0  0  0  0  0  0  0  0  0  0  0
   12.8984  -10.3649    1.8672 C   0  0  0  0  0  0  0  0  0  0  0  0
   13.3180   -9.5891    0.7918 C   0  0  0  0  0  0  0  0  0  0  0  0
   13.2433   -8.2036    0.8752 C   0  0  0  0  0  0  0  0  0  0  0  0
   11.7323   -5.5141    1.1851 N   0  0  0  0  0  0  0  0  0  0  0  0
   11.7964   -4.1649    0.7844 C   0  0  0  0  0  0  0  0  0  0  0  0
   10.7831   -3.6789   -0.0372 C   0  0  0  0  0  0  0  0  0  0  0  0
    9.7490   -4.4602   -0.3161 F   0  0  0  0  0  0  0  0  0  0  0  0
   10.8205   -2.3838   -0.5398 C   0  0  0  0  0  0  0  0  0  0  0  0
   11.8667   -1.5519   -0.1779 C   0  0  0  0  0  0  0  0  0  0  0  0
   11.9398    0.2253   -0.8395 Br  0  0  0  0  0  0  0  0  0  0  0  0
   12.8708   -2.0181    0.6698 C   0  0  0  0  0  0  0  0  0  0  0  0
   12.8692   -3.3398    1.1350 C   0  0  0  0  0  0  0  0  0  0  0  0
   14.0156   -3.8713    1.9784 C   0  0  1  0  0  0  0  0  0  0  0  0
   13.8110   -3.4596    3.3295 O   0  0  0  0  0  0  0  0  0  0  0  0
   16.2254   -7.5111   12.3625 H   0  0  0  0  0  0  0  0  0  0  0  0
   16.6362   -8.2234   10.7655 H   0  0  0  0  0  0  0  0  0  0  0  0
   17.3996   -6.6825   11.2849 H   0  0  0  0  0  0  0  0  0  0  0  0
   16.4463   -6.4065    8.9959 H   0  0  0  0  0  0  0  0  0  0  0  0
   13.9343   -6.1438    8.1174 H   0  0  0  0  0  0  0  0  0  0  0  0
   14.0565   -4.7345    9.2245 H   0  0  0  0  0  0  0  0  0  0  0  0
   15.9833   -3.8671    7.9429 H   0  0  0  0  0  0  0  0  0  0  0  0
   15.9319   -5.3017    6.8631 H   0  0  0  0  0  0  0  0  0  0  0  0
   13.6789   -4.6936    6.2606 H   0  0  0  0  0  0  0  0  0  0  0  0
   13.9500   -2.2600    5.3895 H   0  0  0  0  0  0  0  0  0  0  0  0
   15.6602   -2.5919    5.8273 H   0  0  0  0  0  0  0  0  0  0  0  0
   15.8235   -3.3742    3.7403 H   0  0  0  0  0  0  0  0  0  0  0  0
   15.9914   -5.5634    4.8151 H   0  0  0  0  0  0  0  0  0  0  0  0
   14.2091   -5.7725    4.7347 H   0  0  0  0  0  0  0  0  0  0  0  0
   16.1886   -5.6083    2.4094 H   0  0  0  0  0  0  0  0  0  0  0  0
   15.1674   -7.0055    2.8906 H   0  0  0  0  0  0  0  0  0  0  0  0
   14.3980   -5.6640    0.8574 H   0  0  0  0  0  0  0  0  0  0  0  0
   12.3912   -5.8052    3.1488 H   0  0  0  0  0  0  0  0  0  0  0  0
   11.9254   -7.9094    3.9939 H   0  0  0  0  0  0  0  0  0  0  0  0
   12.0631  -10.3754    3.8448 H   0  0  0  0  0  0  0  0  0  0  0  0
   12.9638  -11.4413    1.8091 H   0  0  0  0  0  0  0  0  0  0  0  0
   13.6993  -10.0601   -0.1022 H   0  0  0  0  0  0  0  0  0  0  0  0
   13.5662   -7.5969    0.0421 H   0  0  0  0  0  0  0  0  0  0  0  0
   10.0447   -2.0312   -1.2032 H   0  0  0  0  0  0  0  0  0  0  0  0
   13.6629   -1.3494    0.9728 H   0  0  0  0  0  0  0  0  0  0  0  0
   12.3378   -3.0253    2.0453 H   0  0  0  0  0  0  0  0  0  0  0  0
   14.9582   -3.4518    1.5968 H   0  0  0  0  0  0  0  0  0  0  0  0
  1  2  1  0  0  0  0
  2  3  2  0  0  0  0
  2  4  1  0  0  0  0
  4  5  1  0  0  0  0
  5  6  1  0  0  0  0
  6  7  1  0  0  0  0
  7  8  1  0  0  0  0
  8  9  1  0  0  0  0
  9 10  1  0  0  0  0
  9 30  1  0  0  0  0
 10 11  1  0  0  0  0
 11 12  1  0  0  0  0
 12 13  1  0  0  0  0
 12 29  1  0  0  0  0
 13 14  1  0  0  0  0
 13 20  1  0  0  0  0
 14 15  2  0  0  0  0
 14 19  1  0  0  0  0
 15 16  1  0  0  0  0
 16 17  2  0  0  0  0
 17 18  1  0  0  0  0
 18 19  2  0  0  0  0
 20 21  2  0  0  0  0
 21 22  1  0  0  0  0
 21 28  1  0  0  0  0
 22 23  1  0  0  0  0
 22 24  2  0  0  0  0
 24 25  1  0  0  0  0
 25 26  1  0  0  0  0
 25 27  2  0  0  0  0
 27 28  1  0  0  0  0
 28 29  1  0  0  0  0
 29 30  1  0  0  0  0
  1 31  1  0  0  0  0
  1 32  1  0  0  0  0
  1 33  1  0  0  0  0
  4 34  1  0  0  0  0
  5 35  1  0  0  0  0
  5 36  1  0  0  0  0
  6 37  1  0  0  0  0
  6 38  1  0  0  0  0
  7 39  1  0  0  0  0
  8 40  1  0  0  0  0
  8 41  1  0  0  0  0
  9 42  1  0  0  0  0
 10 43  1  0  0  0  0
 10 44  1  0  0  0  0
 11 45  1  0  0  0  0
 11 46  1  0  0  0  0
 12 47  1  0  0  0  0
 13 48  1  0  0  0  0
 15 49  1  0  0  0  0
 16 50  1  0  0  0  0
 17 51  1  0  0  0  0
 18 52  1  0  0  0  0
 19 53  1  0  0  0  0
 24 54  1  0  0  0  0
 27 55  1  0  0  0  0
 28 56  1  0  0  0  0
 29 57  1  0  0  0  0
M  END
> <ID>
CHEMBL1082249

> <IC50[nM]>
6

$$$$
CHEMBL1082249
  -OEChem-05192314313D
 Structure written by MMmdl.
 57 60  0     1  0  0  0  0  0999 V2000
   16.4793   -7.2843   11.3165 C   0  0  0  0  0  0  0  0  0  0  0  0
   15.3531   -6.5124   10.6819 C   0  0  0  0  0  0  0  0  0  0  0  0
   14.3425   -6.2284   11.3248 O   0  0  0  0  0  0  0  0  0  0  0  0
   15.5705   -6.1542    9.4074 N   0  0  0  0  0  0  0  0  0  0  0  0
   14.6248   -5.4276    8.5868 C   0  0  0  0  0  0  0  0  0  0  0  0
   15.3309   -4.6310    7.4948 C   0  0  0  0  0  0  0  0  0  0  0  0
   14.2349   -3.9683    6.6666 N   0  0  0  0  0  0  0  0  0  0  0  0
   14.7037   -3.0483    5.5326 C   0  0  0  0  0  0  0  0  0  0  0  0
   14.9054   -3.7819    4.1884 C   0  0  1  0  0  0  0  0  0  0  0  0
   15.0841   -5.3250    4.2406 C   0  0  0  0  0  0  0  0  0  0  0  0
   15.2163   -5.9084    2.8271 C   0  0  0  0  0  0  0  0  0  0  0  0
   14.0959   -5.4139    1.8851 C   0  0  1  0  0  0  0  0  0  0  0  0
   12.7047   -6.0683    2.1278 C   0  0  2  0  0  0  0  0  0  0  0  0
   12.7518   -7.5911    2.0333 C   0  0  0  0  0  0  0  0  0  0  0  0
   12.3185   -8.3767    3.1031 C   0  0  0  0  0  0  0  0  0  0  0  0
   12.3947   -9.7647    3.0181 C   0  0  0  0  0  0  0  0  0  0  0  0
   12.8984  -10.3649    1.8672 C   0  0  0  0  0  0  0  0  0  0  0  0
   13.3180   -9.5891    0.7918 C   0  0  0  0  0  0  0  0  0  0  0  0
   13.2433   -8.2036    0.8752 C   0  0  0  0  0  0  0  0  0  0  0  0
   11.7323   -5.5141    1.1851 N   0  0  0  0  0  0  0  0  0  0  0  0
   11.7964   -4.1649    0.7844 C   0  0  0  0  0  0  0  0  0  0  0  0
   10.7831   -3.6789   -0.0372 C   0  0  0  0  0  0  0  0  0  0  0  0
    9.7490   -4.4602   -0.3161 F   0  0  0  0  0  0  0  0  0  0  0  0
   10.8205   -2.3838   -0.5398 C   0  0  0  0  0  0  0  0  0  0  0  0
   11.8667   -1.5519   -0.1779 C   0  0  0  0  0  0  0  0  0  0  0  0
   11.9398    0.2253   -0.8395 Br  0  0  0  0  0  0  0  0  0  0  0  0
   12.8708   -2.0181    0.6698 C   0  0  0  0  0  0  0  0  0  0  0  0
   12.8692   -3.3398    1.1350 C   0  0  0  0  0  0  0  0  0  0  0  0
   14.0156   -3.8713    1.9784 C   0  0  1  0  0  0  0  0  0  0  0  0
   13.8110   -3.4596    3.3295 O   0  0  0  0  0  0  0  0  0  0  0  0
   16.2254   -7.5111   12.3625 H   0  0  0  0  0  0  0  0  0  0  0  0
   16.6362   -8.2234   10.7655 H   0  0  0  0  0  0  0  0  0  0  0  0
   17.3996   -6.6825   11.2849 H   0  0  0  0  0  0  0  0  0  0  0  0
   16.4463   -6.4065    8.9959 H   0  0  0  0  0  0  0  0  0  0  0  0
   13.9343   -6.1438    8.1174 H   0  0  0  0  0  0  0  0  0  0  0  0
   14.0565   -4.7345    9.2245 H   0  0  0  0  0  0  0  0  0  0  0  0
   15.9833   -3.8671    7.9429 H   0  0  0  0  0  0  0  0  0  0  0  0
   15.9319   -5.3017    6.8631 H   0  0  0  0  0  0  0  0  0  0  0  0
   13.6789   -4.6936    6.2606 H   0  0  0  0  0  0  0  0  0  0  0  0
   13.9500   -2.2600    5.3895 H   0  0  0  0  0  0  0  0  0  0  0  0
   15.6602   -2.5919    5.8273 H   0  0  0  0  0  0  0  0  0  0  0  0
   15.8235   -3.3742    3.7403 H   0  0  0  0  0  0  0  0  0  0  0  0
   15.9914   -5.5634    4.8151 H   0  0  0  0  0  0  0  0  0  0  0  0
   14.2091   -5.7725    4.7347 H   0  0  0  0  0  0  0  0  0  0  0  0
   16.1886   -5.6083    2.4094 H   0  0  0  0  0  0  0  0  0  0  0  0
   15.1674   -7.0055    2.8906 H   0  0  0  0  0  0  0  0  0  0  0  0
   14.3980   -5.6640    0.8574 H   0  0  0  0  0  0  0  0  0  0  0  0
   12.3912   -5.8052    3.1488 H   0  0  0  0  0  0  0  0  0  0  0  0
   11.9254   -7.9094    3.9939 H   0  0  0  0  0  0  0  0  0  0  0  0
   12.0631  -10.3754    3.8448 H   0  0  0  0  0  0  0  0  0  0  0  0
   12.9638  -11.4413    1.8091 H   0  0  0  0  0  0  0  0  0  0  0  0
   13.6993  -10.0601   -0.1022 H   0  0  0  0  0  0  0  0  0  0  0  0
   13.5662   -7.5969    0.0421 H   0  0  0  0  0  0  0  0  0  0  0  0
   11.3144   -4.0489   -0.9265 H   0  0  0  0  0  0  0  0  0  0  0  0
   10.0447   -2.0312   -1.2032 H   0  0  0  0  0  0  0  0  0  0  0  0
   13.6629   -1.3494    0.9728 H   0  0  0  0  0  0  0  0  0  0  0  0
   14.9582   -3.4518    1.5968 H   0  0  0  0  0  0  0  0  0  0  0  0
  1  2  1  0  0  0  0
  2  3  2  0  0  0  0
  2  4  1  0  0  0  0
  4  5  1  0  0  0  0
  5  6  1  0  0  0  0
  6  7  1  0  0  0  0
  7  8  1  0  0  0  0
  8  9  1  0  0  0  0
  9 10  1  0  0  0  0
  9 30  1  0  0  0  0
 10 11  1  0  0  0  0
 11 12  1  0  0  0  0
 12 13  1  0  0  0  0
 12 29  1  0  0  0  0
 13 14  1  0  0  0  0
 13 20  1  0  0  0  0
 14 15  2  0  0  0  0
 14 19  1  0  0  0  0
 15 16  1  0  0  0  0
 16 17  2  0  0  0  0
 17 18  1  0  0  0  0
 18 19  2  0  0  0  0
 20 21  2  0  0  0  0
 21 22  1  0  0  0  0
 21 28  1  0  0  0  0
 22 23  1  0  0  0  0
 22 24  1  0  0  0  0
 24 25  2  0  0  0  0
 25 26  1  0  0  0  0
 25 27  1  0  0  0  0
 27 28  2  0  0  0  0
 28 29  1  0  0  0  0
 29 30  1  0  0  0  0
  1 31  1  0  0  0  0
  1 32  1  0  0  0  0
  1 33  1  0  0  0  0
  4 34  1  0  0  0  0
  5 35  1  0  0  0  0
  5 36  1  0  0  0  0
  6 37  1  0  0  0  0
  6 38  1  0  0  0  0
  7 39  1  0  0  0  0
  8 40  1  0  0  0  0
  8 41  1  0  0  0  0
  9 42  1  0  0  0  0
 10 43  1  0  0  0  0
 10 44  1  0  0  0  0
 11 45  1  0  0  0  0
 11 46  1  0  0  0  0
 12 47  1  0  0  0  0
 13 48  1  0  0  0  0
 15 49  1  0  0  0  0
 16 50  1  0  0  0  0
 17 51  1  0  0  0  0
 18 52  1  0  0  0  0
 19 53  1  0  0  0  0
 22 54  1  0  0  0  0
 24 55  1  0  0  0  0
 27 56  1  0  0  0  0
 29 57  1  0  0  0  0
M  END
> <ID>
CHEMBL1082249

> <IC50[nM]>
6

$$$$
CHEMBL1082249
  -OEChem-05192314313D
 Structure written by MMmdl.
 57 60  0     1  0  0  0  0  0999 V2000
   16.4793   -7.2843   11.3165 C   0  0  0  0  0  0  0  0  0  0  0  0
   15.3531   -6.5124   10.6819 C   0  0  0  0  0  0  0  0  0  0  0  0
   14.3425   -6.2284   11.3248 O   0  0  0  0  0  0  0  0  0  0  0  0
   15.5705   -6.1542    9.4074 N   0  0  0  0  0  0  0  0  0  0  0  0
   14.6248   -5.4276    8.5868 C   0  0  0  0  0  0  0  0  0  0  0  0
   15.3309   -4.6310    7.4948 C   0  0  0  0  0  0  0  0  0  0  0  0
   14.2349   -3.9683    6.6666 N   0  0  0  0  0  0  0  0  0  0  0  0
   14.7037   -3.0483    5.5326 C   0  0  0  0  0  0  0  0  0  0  0  0
   14.9054   -3.7819    4.1884 C   0  0  1  0  0  0  0  0  0  0  0  0
   15.0841   -5.3250    4.2406 C   0  0  0  0  0  0  0  0  0  0  0  0
   15.2163   -5.9084    2.8271 C   0  0  0  0  0  0  0  0  0  0  0  0
   14.0959   -5.4139    1.8851 C   0  0  1  0  0  0  0  0  0  0  0  0
   12.7047   -6.0683    2.1278 C   0  0  2  0  0  0  0  0  0  0  0  0
   12.7518   -7.5911    2.0333 C   0  0  0  0  0  0  0  0  0  0  0  0
   12.3185   -8.3767    3.1031 C   0  0  0  0  0  0  0  0  0  0  0  0
   12.3947   -9.7647    3.0181 C   0  0  0  0  0  0  0  0  0  0  0  0
   12.8984  -10.3649    1.8672 C   0  0  0  0  0  0  0  0  0  0  0  0
   13.3180   -9.5891    0.7918 C   0  0  0  0  0  0  0  0  0  0  0  0
   13.2433   -8.2036    0.8752 C   0  0  0  0  0  0  0  0  0  0  0  0
   11.7323   -5.5141    1.1851 N   0  0  0  0  0  0  0  0  0  0  0  0
   11.7964   -4.1649    0.7844 C   0  0  0  0  0  0  0  0  0  0  0  0
   10.7831   -3.6789   -0.0372 C   0  0  0  0  0  0  0  0  0  0  0  0
    9.7490   -4.4602   -0.3161 F   0  0  0  0  0  0  0  0  0  0  0  0
   10.8205   -2.3838   -0.5398 C   0  0  0  0  0  0  0  0  0  0  0  0
   11.8667   -1.5519   -0.1779 C   0  0  0  0  0  0  0  0  0  0  0  0
   11.9398    0.2253   -0.8395 Br  0  0  0  0  0  0  0  0  0  0  0  0
   12.8708   -2.0181    0.6698 C   0  0  0  0  0  0  0  0  0  0  0  0
   12.8692   -3.3398    1.1350 C   0  0  0  0  0  0  0  0  0  0  0  0
   14.0156   -3.8713    1.9784 C   0  0  1  0  0  0  0  0  0  0  0  0
   13.8110   -3.4596    3.3295 O   0  0  0  0  0  0  0  0  0  0  0  0
   17.2826   -7.4340   10.5800 H   0  0  0  0  0  0  0  0  0  0  0  0
   16.8708   -6.7211   12.1765 H   0  0  0  0  0  0  0  0  0  0  0  0
   16.1074   -8.2619   11.6571 H   0  0  0  0  0  0  0  0  0  0  0  0
   13.7407   -5.7439   10.7720 H   0  0  0  0  0  0  0  0  0  0  0  0
   13.9343   -6.1438    8.1174 H   0  0  0  0  0  0  0  0  0  0  0  0
   14.0565   -4.7345    9.2245 H   0  0  0  0  0  0  0  0  0  0  0  0
   15.9833   -3.8671    7.9429 H   0  0  0  0  0  0  0  0  0  0  0  0
   15.9319   -5.3017    6.8631 H   0  0  0  0  0  0  0  0  0  0  0  0
   13.6789   -4.6936    6.2606 H   0  0  0  0  0  0  0  0  0  0  0  0
   13.9500   -2.2600    5.3895 H   0  0  0  0  0  0  0  0  0  0  0  0
   15.6602   -2.5919    5.8273 H   0  0  0  0  0  0  0  0  0  0  0  0
   15.8235   -3.3742    3.7403 H   0  0  0  0  0  0  0  0  0  0  0  0
   15.9914   -5.5634    4.8151 H   0  0  0  0  0  0  0  0  0  0  0  0
   14.2091   -5.7725    4.7347 H   0  0  0  0  0  0  0  0  0  0  0  0
   16.1886   -5.6083    2.4094 H   0  0  0  0  0  0  0  0  0  0  0  0
   15.1674   -7.0055    2.8906 H   0  0  0  0  0  0  0  0  0  0  0  0
   14.3980   -5.6640    0.8574 H   0  0  0  0  0  0  0  0  0  0  0  0
   12.3912   -5.8052    3.1488 H   0  0  0  0  0  0  0  0  0  0  0  0
   11.9254   -7.9094    3.9939 H   0  0  0  0  0  0  0  0  0  0  0  0
   12.0631  -10.3754    3.8448 H   0  0  0  0  0  0  0  0  0  0  0  0
   12.9638  -11.4413    1.8091 H   0  0  0  0  0  0  0  0  0  0  0  0
   13.6993  -10.0601   -0.1022 H   0  0  0  0  0  0  0  0  0  0  0  0
   13.5662   -7.5969    0.0421 H   0  0  0  0  0  0  0  0  0  0  0  0
   10.0447   -2.0312   -1.2032 H   0  0  0  0  0  0  0  0  0  0  0  0
   11.2911   -1.2049    0.6929 H   0  0  0  0  0  0  0  0  0  0  0  0
   13.6629   -1.3494    0.9728 H   0  0  0  0  0  0  0  0  0  0  0  0
   14.9582   -3.4518    1.5968 H   0  0  0  0  0  0  0  0  0  0  0  0
  1  2  1  0  0  0  0
  2  3  1  0  0  0  0
  2  4  2  0  0  0  0
  4  5  1  0  0  0  0
  5  6  1  0  0  0  0
  6  7  1  0  0  0  0
  7  8  1  0  0  0  0
  8  9  1  0  0  0  0
  9 10  1  0  0  0  0
  9 30  1  0  0  0  0
 10 11  1  0  0  0  0
 11 12  1  0  0  0  0
 12 13  1  0  0  0  0
 12 29  1  0  0  0  0
 13 14  1  0  0  0  0
 13 20  1  0  0  0  0
 14 15  2  0  0  0  0
 14 19  1  0  0  0  0
 15 16  1  0  0  0  0
 16 17  2  0  0  0  0
 17 18  1  0  0  0  0
 18 19  2  0  0  0  0
 20 21  2  0  0  0  0
 21 22  1  0  0  0  0
 21 28  1  0  0  0  0
 22 23  1  0  0  0  0
 22 24  2  0  0  0  0
 24 25  1  0  0  0  0
 25 26  1  0  0  0  0
 25 27  1  0  0  0  0
 27 28  2  0  0  0  0
 28 29  1  0  0  0  0
 29 30  1  0  0  0  0
  1 31  1  0  0  0  0
  1 32  1  0  0  0  0
  1 33  1  0  0  0  0
  3 34  1  0  0  0  0
  5 35  1  0  0  0  0
  5 36  1  0  0  0  0
  6 37  1  0  0  0  0
  6 38  1  0  0  0  0
  7 39  1  0  0  0  0
  8 40  1  0  0  0  0
  8 41  1  0  0  0  0
  9 42  1  0  0  0  0
 10 43  1  0  0  0  0
 10 44  1  0  0  0  0
 11 45  1  0  0  0  0
 11 46  1  0  0  0  0
 12 47  1  0  0  0  0
 13 48  1  0  0  0  0
 15 49  1  0  0  0  0
 16 50  1  0  0  0  0
 17 51  1  0  0  0  0
 18 52  1  0  0  0  0
 19 53  1  0  0  0  0
 24 54  1  0  0  0  0
 25 55  1  0  0  0  0
 27 56  1  0  0  0  0
 29 57  1  0  0  0  0
M  END
> <ID>
CHEMBL1082249

> <IC50[nM]>
6

$$$$
CHEMBL1082249
  -OEChem-05192314313D
 Structure written by MMmdl.
 57 60  0     1  0  0  0  0  0999 V2000
   16.4793   -7.2843   11.3165 C   0  0  0  0  0  0  0  0  0  0  0  0
   15.3531   -6.5124   10.6819 C   0  0  0  0  0  0  0  0  0  0  0  0
   14.3425   -6.2284   11.3248 O   0  0  0  0  0  0  0  0  0  0  0  0
   15.5705   -6.1542    9.4074 N   0  0  0  0  0  0  0  0  0  0  0  0
   14.6248   -5.4276    8.5868 C   0  0  0  0  0  0  0  0  0  0  0  0
   15.3309   -4.6310    7.4948 C   0  0  0  0  0  0  0  0  0  0  0  0
   14.2349   -3.9683    6.6666 N   0  0  0  0  0  0  0  0  0  0  0  0
   14.7037   -3.0483    5.5326 C   0  0  0  0  0  0  0  0  0  0  0  0
   14.9054   -3.7819    4.1884 C   0  0  1  0  0  0  0  0  0  0  0  0
   15.0841   -5.3250    4.2406 C   0  0  0  0  0  0  0  0  0  0  0  0
   15.2163   -5.9084    2.8271 C   0  0  0  0  0  0  0  0  0  0  0  0
   14.0959   -5.4139    1.8851 C   0  0  1  0  0  0  0  0  0  0  0  0
   12.7047   -6.0683    2.1278 C   0  0  2  0  0  0  0  0  0  0  0  0
   12.7518   -7.5911    2.0333 C   0  0  0  0  0  0  0  0  0  0  0  0
   12.3185   -8.3767    3.1031 C   0  0  0  0  0  0  0  0  0  0  0  0
   12.3947   -9.7647    3.0181 C   0  0  0  0  0  0  0  0  0  0  0  0
   12.8984  -10.3649    1.8672 C   0  0  0  0  0  0  0  0  0  0  0  0
   13.3180   -9.5891    0.7918 C   0  0  0  0  0  0  0  0  0  0  0  0
   13.2433   -8.2036    0.8752 C   0  0  0  0  0  0  0  0  0  0  0  0
   11.7323   -5.5141    1.1851 N   0  0  0  0  0  0  0  0  0  0  0  0
   11.7964   -4.1649    0.7844 C   0  0  0  0  0  0  0  0  0  0  0  0
   10.7831   -3.6789   -0.0372 C   0  0  0  0  0  0  0  0  0  0  0  0
    9.7490   -4.4602   -0.3161 F   0  0  0  0  0  0  0  0  0  0  0  0
   10.8205   -2.3838   -0.5398 C   0  0  0  0  0  0  0  0  0  0  0  0
   11.8667   -1.5519   -0.1779 C   0  0  0  0  0  0  0  0  0  0  0  0
   11.9398    0.2253   -0.8395 Br  0  0  0  0  0  0  0  0  0  0  0  0
   12.8708   -2.0181    0.6698 C   0  0  0  0  0  0  0  0  0  0  0  0
   12.8692   -3.3398    1.1350 C   0  0  0  0  0  0  0  0  0  0  0  0
   14.0156   -3.8713    1.9784 C   0  0  1  0  0  0  0  0  0  0  0  0
   13.8110   -3.4596    3.3295 O   0  0  0  0  0  0  0  0  0  0  0  0
   17.2826   -7.4340   10.5800 H   0  0  0  0  0  0  0  0  0  0  0  0
   16.8708   -6.7211   12.1765 H   0  0  0  0  0  0  0  0  0  0  0  0
   16.1074   -8.2619   11.6571 H   0  0  0  0  0  0  0  0  0  0  0  0
   13.7407   -5.7439   10.7720 H   0  0  0  0  0  0  0  0  0  0  0  0
   13.9343   -6.1438    8.1174 H   0  0  0  0  0  0  0  0  0  0  0  0
   14.0565   -4.7345    9.2245 H   0  0  0  0  0  0  0  0  0  0  0  0
   15.9833   -3.8671    7.9429 H   0  0  0  0  0  0  0  0  0  0  0  0
   15.9319   -5.3017    6.8631 H   0  0  0  0  0  0  0  0  0  0  0  0
   13.6789   -4.6936    6.2606 H   0  0  0  0  0  0  0  0  0  0  0  0
   13.9500   -2.2600    5.3895 H   0  0  0  0  0  0  0  0  0  0  0  0
   15.6602   -2.5919    5.8273 H   0  0  0  0  0  0  0  0  0  0  0  0
   15.8235   -3.3742    3.7403 H   0  0  0  0  0  0  0  0  0  0  0  0
   15.9914   -5.5634    4.8151 H   0  0  0  0  0  0  0  0  0  0  0  0
   14.2091   -5.7725    4.7347 H   0  0  0  0  0  0  0  0  0  0  0  0
   16.1886   -5.6083    2.4094 H   0  0  0  0  0  0  0  0  0  0  0  0
   15.1674   -7.0055    2.8906 H   0  0  0  0  0  0  0  0  0  0  0  0
   14.3980   -5.6640    0.8574 H   0  0  0  0  0  0  0  0  0  0  0  0
   12.3912   -5.8052    3.1488 H   0  0  0  0  0  0  0  0  0  0  0  0
   11.9254   -7.9094    3.9939 H   0  0  0  0  0  0  0  0  0  0  0  0
   12.0631  -10.3754    3.8448 H   0  0  0  0  0  0  0  0  0  0  0  0
   12.9638  -11.4413    1.8091 H   0  0  0  0  0  0  0  0  0  0  0  0
   13.6993  -10.0601   -0.1022 H   0  0  0  0  0  0  0  0  0  0  0  0
   13.5662   -7.5969    0.0421 H   0  0  0  0  0  0  0  0  0  0  0  0
   10.0447   -2.0312   -1.2032 H   0  0  0  0  0  0  0  0  0  0  0  0
   13.6629   -1.3494    0.9728 H   0  0  0  0  0  0  0  0  0  0  0  0
   12.3378   -3.0253    2.0453 H   0  0  0  0  0  0  0  0  0  0  0  0
   14.9582   -3.4518    1.5968 H   0  0  0  0  0  0  0  0  0  0  0  0
  1  2  1  0  0  0  0
  2  3  1  0  0  0  0
  2  4  2  0  0  0  0
  4  5  1  0  0  0  0
  5  6  1  0  0  0  0
  6  7  1  0  0  0  0
  7  8  1  0  0  0  0
  8  9  1  0  0  0  0
  9 10  1  0  0  0  0
  9 30  1  0  0  0  0
 10 11  1  0  0  0  0
 11 12  1  0  0  0  0
 12 13  1  0  0  0  0
 12 29  1  0  0  0  0
 13 14  1  0  0  0  0
 13 20  1  0  0  0  0
 14 15  2  0  0  0  0
 14 19  1  0  0  0  0
 15 16  1  0  0  0  0
 16 17  2  0  0  0  0
 17 18  1  0  0  0  0
 18 19  2  0  0  0  0
 20 21  2  0  0  0  0
 21 22  1  0  0  0  0
 21 28  1  0  0  0  0
 22 23  1  0  0  0  0
 22 24  2  0  0  0  0
 24 25  1  0  0  0  0
 25 26  1  0  0  0  0
 25 27  2  0  0  0  0
 27 28  1  0  0  0  0
 28 29  1  0  0  0  0
 29 30  1  0  0  0  0
  1 31  1  0  0  0  0
  1 32  1  0  0  0  0
  1 33  1  0  0  0  0
  3 34  1  0  0  0  0
  5 35  1  0  0  0  0
  5 36  1  0  0  0  0
  6 37  1  0  0  0  0
  6 38  1  0  0  0  0
  7 39  1  0  0  0  0
  8 40  1  0  0  0  0
  8 41  1  0  0  0  0
  9 42  1  0  0  0  0
 10 43  1  0  0  0  0
 10 44  1  0  0  0  0
 11 45  1  0  0  0  0
 11 46  1  0  0  0  0
 12 47  1  0  0  0  0
 13 48  1  0  0  0  0
 15 49  1  0  0  0  0
 16 50  1  0  0  0  0
 17 51  1  0  0  0  0
 18 52  1  0  0  0  0
 19 53  1  0  0  0  0
 24 54  1  0  0  0  0
 27 55  1  0  0  0  0
 28 56  1  0  0  0  0
 29 57  1  0  0  0  0
M  END
> <ID>
CHEMBL1082249

> <IC50[nM]>
6

$$$$
CHEMBL1082249
  -OEChem-05192314313D
 Structure written by MMmdl.
 57 60  0     1  0  0  0  0  0999 V2000
   16.4793   -7.2843   11.3165 C   0  0  0  0  0  0  0  0  0  0  0  0
   15.3531   -6.5124   10.6819 C   0  0  0  0  0  0  0  0  0  0  0  0
   14.3425   -6.2284   11.3248 O   0  0  0  0  0  0  0  0  0  0  0  0
   15.5705   -6.1542    9.4074 N   0  0  0  0  0  0  0  0  0  0  0  0
   14.6248   -5.4276    8.5868 C   0  0  0  0  0  0  0  0  0  0  0  0
   15.3309   -4.6310    7.4948 C   0  0  0  0  0  0  0  0  0  0  0  0
   14.2349   -3.9683    6.6666 N   0  0  0  0  0  0  0  0  0  0  0  0
   14.7037   -3.0483    5.5326 C   0  0  0  0  0  0  0  0  0  0  0  0
   14.9054   -3.7819    4.1884 C   0  0  1  0  0  0  0  0  0  0  0  0
   15.0841   -5.3250    4.2406 C   0  0  0  0  0  0  0  0  0  0  0  0
   15.2163   -5.9084    2.8271 C   0  0  0  0  0  0  0  0  0  0  0  0
   14.0959   -5.4139    1.8851 C   0  0  1  0  0  0  0  0  0  0  0  0
   12.7047   -6.0683    2.1278 C   0  0  2  0  0  0  0  0  0  0  0  0
   12.7518   -7.5911    2.0333 C   0  0  0  0  0  0  0  0  0  0  0  0
   12.3185   -8.3767    3.1031 C   0  0  0  0  0  0  0  0  0  0  0  0
   12.3947   -9.7647    3.0181 C   0  0  0  0  0  0  0  0  0  0  0  0
   12.8984  -10.3649    1.8672 C   0  0  0  0  0  0  0  0  0  0  0  0
   13.3180   -9.5891    0.7918 C   0  0  0  0  0  0  0  0  0  0  0  0
   13.2433   -8.2036    0.8752 C   0  0  0  0  0  0  0  0  0  0  0  0
   11.7323   -5.5141    1.1851 N   0  0  0  0  0  0  0  0  0  0  0  0
   11.7964   -4.1649    0.7844 C   0  0  0  0  0  0  0  0  0  0  0  0
   10.7831   -3.6789   -0.0372 C   0  0  0  0  0  0  0  0  0  0  0  0
    9.7490   -4.4602   -0.3161 F   0  0  0  0  0  0  0  0  0  0  0  0
   10.8205   -2.3838   -0.5398 C   0  0  0  0  0  0  0  0  0  0  0  0
   11.8667   -1.5519   -0.1779 C   0  0  0  0  0  0  0  0  0  0  0  0
   11.9398    0.2253   -0.8395 Br  0  0  0  0  0  0  0  0  0  0  0  0
   12.8708   -2.0181    0.6698 C   0  0  0  0  0  0  0  0  0  0  0  0
   12.8692   -3.3398    1.1350 C   0  0  0  0  0  0  0  0  0  0  0  0
   14.0156   -3.8713    1.9784 C   0  0  1  0  0  0  0  0  0  0  0  0
   13.8110   -3.4596    3.3295 O   0  0  0  0  0  0  0  0  0  0  0  0
   17.2826   -7.4340   10.5800 H   0  0  0  0  0  0  0  0  0  0  0  0
   16.8708   -6.7211   12.1765 H   0  0  0  0  0  0  0  0  0  0  0  0
   16.1074   -8.2619   11.6571 H   0  0  0  0  0  0  0  0  0  0  0  0
   13.7407   -5.7439   10.7720 H   0  0  0  0  0  0  0  0  0  0  0  0
   13.9343   -6.1438    8.1174 H   0  0  0  0  0  0  0  0  0  0  0  0
   14.0565   -4.7345    9.2245 H   0  0  0  0  0  0  0  0  0  0  0  0
   15.9833   -3.8671    7.9429 H   0  0  0  0  0  0  0  0  0  0  0  0
   15.9319   -5.3017    6.8631 H   0  0  0  0  0  0  0  0  0  0  0  0
   13.6789   -4.6936    6.2606 H   0  0  0  0  0  0  0  0  0  0  0  0
   13.9500   -2.2600    5.3895 H   0  0  0  0  0  0  0  0  0  0  0  0
   15.6602   -2.5919    5.8273 H   0  0  0  0  0  0  0  0  0  0  0  0
   15.8235   -3.3742    3.7403 H   0  0  0  0  0  0  0  0  0  0  0  0
   15.9914   -5.5634    4.8151 H   0  0  0  0  0  0  0  0  0  0  0  0
   14.2091   -5.7725    4.7347 H   0  0  0  0  0  0  0  0  0  0  0  0
   16.1886   -5.6083    2.4094 H   0  0  0  0  0  0  0  0  0  0  0  0
   15.1674   -7.0055    2.8906 H   0  0  0  0  0  0  0  0  0  0  0  0
   14.3980   -5.6640    0.8574 H   0  0  0  0  0  0  0  0  0  0  0  0
   12.3912   -5.8052    3.1488 H   0  0  0  0  0  0  0  0  0  0  0  0
   11.9254   -7.9094    3.9939 H   0  0  0  0  0  0  0  0  0  0  0  0
   12.0631  -10.3754    3.8448 H   0  0  0  0  0  0  0  0  0  0  0  0
   12.9638  -11.4413    1.8091 H   0  0  0  0  0  0  0  0  0  0  0  0
   13.6993  -10.0601   -0.1022 H   0  0  0  0  0  0  0  0  0  0  0  0
   13.5662   -7.5969    0.0421 H   0  0  0  0  0  0  0  0  0  0  0  0
   11.3144   -4.0489   -0.9265 H   0  0  0  0  0  0  0  0  0  0  0  0
   10.0447   -2.0312   -1.2032 H   0  0  0  0  0  0  0  0  0  0  0  0
   13.6629   -1.3494    0.9728 H   0  0  0  0  0  0  0  0  0  0  0  0
   14.9582   -3.4518    1.5968 H   0  0  0  0  0  0  0  0  0  0  0  0
  1  2  1  0  0  0  0
  2  3  1  0  0  0  0
  2  4  2  0  0  0  0
  4  5  1  0  0  0  0
  5  6  1  0  0  0  0
  6  7  1  0  0  0  0
  7  8  1  0  0  0  0
  8  9  1  0  0  0  0
  9 10  1  0  0  0  0
  9 30  1  0  0  0  0
 10 11  1  0  0  0  0
 11 12  1  0  0  0  0
 12 13  1  0  0  0  0
 12 29  1  0  0  0  0
 13 14  1  0  0  0  0
 13 20  1  0  0  0  0
 14 15  2  0  0  0  0
 14 19  1  0  0  0  0
 15 16  1  0  0  0  0
 16 17  2  0  0  0  0
 17 18  1  0  0  0  0
 18 19  2  0  0  0  0
 20 21  2  0  0  0  0
 21 22  1  0  0  0  0
 21 28  1  0  0  0  0
 22 23  1  0  0  0  0
 22 24  1  0  0  0  0
 24 25  2  0  0  0  0
 25 26  1  0  0  0  0
 25 27  1  0  0  0  0
 27 28  2  0  0  0  0
 28 29  1  0  0  0  0
 29 30  1  0  0  0  0
  1 31  1  0  0  0  0
  1 32  1  0  0  0  0
  1 33  1  0  0  0  0
  3 34  1  0  0  0  0
  5 35  1  0  0  0  0
  5 36  1  0  0  0  0
  6 37  1  0  0  0  0
  6 38  1  0  0  0  0
  7 39  1  0  0  0  0
  8 40  1  0  0  0  0
  8 41  1  0  0  0  0
  9 42  1  0  0  0  0
 10 43  1  0  0  0  0
 10 44  1  0  0  0  0
 11 45  1  0  0  0  0
 11 46  1  0  0  0  0
 12 47  1  0  0  0  0
 13 48  1  0  0  0  0
 15 49  1  0  0  0  0
 16 50  1  0  0  0  0
 17 51  1  0  0  0  0
 18 52  1  0  0  0  0
 19 53  1  0  0  0  0
 22 54  1  0  0  0  0
 24 55  1  0  0  0  0
 27 56  1  0  0  0  0
 29 57  1  0  0  0  0
M  END
> <ID>
CHEMBL1082249

> <IC50[nM]>
6

$$$$
