CHEMBL1078691
  -OEChem-05192314313D
 Structure written by MMmdl.
 52 55  0     1  0  0  0  0  0999 V2000
   10.5284    0.3945   -0.7005 C   0  0  0  0  0  0  0  0  0  0  0  0
   11.9546   -0.1757   -0.7407 C   0  0  0  0  0  0  0  0  0  0  0  0
   12.4165   -0.1649   -2.1966 C   0  0  0  0  0  0  0  0  0  0  0  0
   12.8844    0.7521    0.0824 C   0  0  0  0  0  0  0  0  0  0  0  0
   11.8943   -1.5960   -0.1952 C   0  0  0  0  0  0  0  0  0  0  0  0
   10.8356   -2.4428   -0.5504 C   0  0  0  0  0  0  0  0  0  0  0  0
   10.7698   -3.7406   -0.0534 C   0  0  0  0  0  0  0  0  0  0  0  0
   11.7883   -4.2157    0.7713 C   0  0  0  0  0  0  0  0  0  0  0  0
   12.8596   -3.3846    1.1392 C   0  0  0  0  0  0  0  0  0  0  0  0
   12.8744   -2.0732    0.6730 C   0  0  0  0  0  0  0  0  0  0  0  0
   14.0135   -3.8879    1.9819 C   0  0  1  0  0  0  0  0  0  0  0  0
   13.8030   -3.4515    3.3286 O   0  0  0  0  0  0  0  0  0  0  0  0
   14.8803   -3.7868    4.2124 C   0  0  0  0  0  0  0  0  0  0  0  0
   15.0742   -5.3209    4.2479 C   0  0  0  0  0  0  0  0  0  0  0  0
   15.2231   -5.9051    2.8405 C   0  0  0  0  0  0  0  0  0  0  0  0
   14.1110   -5.4142    1.8892 C   0  0  1  0  0  0  0  0  0  0  0  0
   12.7111   -6.0630    2.1315 C   0  0  2  0  0  0  0  0  0  0  0  0
   12.7590   -7.5693    2.0352 C   0  0  0  0  0  0  0  0  0  0  0  0
   13.2481   -8.1881    0.8802 C   0  0  0  0  0  0  0  0  0  0  0  0
   13.3233   -9.5851    0.8265 C   0  0  0  0  0  0  0  0  0  0  0  0
   12.9107  -10.3576    1.9488 C   0  0  0  0  0  0  0  0  0  0  0  0
   12.9634  -11.6728    2.0898 O   0  0  0  0  0  0  0  0  0  0  0  0
   12.3943   -9.6942    3.0615 C   0  0  0  0  0  0  0  0  0  0  0  0
   12.3151   -8.3134    3.1219 C   0  0  0  0  0  0  0  0  0  0  0  0
   11.7105   -5.5421    1.2053 N   0  0  0  0  0  0  0  0  0  0  0  0
   10.1646    0.4007    0.3376 H   0  0  0  0  0  0  0  0  0  0  0  0
   10.5332    1.4219   -1.0934 H   0  0  0  0  0  0  0  0  0  0  0  0
    9.8661   -0.2308   -1.3173 H   0  0  0  0  0  0  0  0  0  0  0  0
   13.4378   -0.5684   -2.2608 H   0  0  0  0  0  0  0  0  0  0  0  0
   11.7385   -0.7855   -2.8009 H   0  0  0  0  0  0  0  0  0  0  0  0
   12.4056    0.8672   -2.5770 H   0  0  0  0  0  0  0  0  0  0  0  0
   13.9102    0.3554    0.0623 H   0  0  0  0  0  0  0  0  0  0  0  0
   12.8734    1.7621   -0.3533 H   0  0  0  0  0  0  0  0  0  0  0  0
   12.5293    0.7976    1.1225 H   0  0  0  0  0  0  0  0  0  0  0  0
   10.0640   -2.0847   -1.2158 H   0  0  0  0  0  0  0  0  0  0  0  0
    9.9340   -4.3766   -0.3052 H   0  0  0  0  0  0  0  0  0  0  0  0
   13.6645   -1.4095    0.9918 H   0  0  0  0  0  0  0  0  0  0  0  0
   14.9473   -3.4560    1.5927 H   0  0  0  0  0  0  0  0  0  0  0  0
   15.8057   -3.3104    3.8566 H   0  0  0  0  0  0  0  0  0  0  0  0
   14.6475   -3.4251    5.2248 H   0  0  0  0  0  0  0  0  0  0  0  0
   15.9798   -5.5525    4.8278 H   0  0  0  0  0  0  0  0  0  0  0  0
   14.2004   -5.7796    4.7338 H   0  0  0  0  0  0  0  0  0  0  0  0
   16.1987   -5.6028    2.4320 H   0  0  0  0  0  0  0  0  0  0  0  0
   15.1766   -7.0022    2.9048 H   0  0  0  0  0  0  0  0  0  0  0  0
   14.4165   -5.6677    0.8633 H   0  0  0  0  0  0  0  0  0  0  0  0
   12.4055   -5.8019    3.1554 H   0  0  0  0  0  0  0  0  0  0  0  0
   13.5652   -7.5931    0.0365 H   0  0  0  0  0  0  0  0  0  0  0  0
   13.6927  -10.0746   -0.0625 H   0  0  0  0  0  0  0  0  0  0  0  0
   12.6204  -11.9144    2.9422 H   0  0  0  0  0  0  0  0  0  0  0  0
   12.0454  -10.2756    3.9021 H   0  0  0  0  0  0  0  0  0  0  0  0
   11.9157   -7.8233    3.9975 H   0  0  0  0  0  0  0  0  0  0  0  0
   10.8211   -5.6495    1.6497 H   0  0  0  0  0  0  0  0  0  0  0  0
  1  2  1  0  0  0  0
  2  3  1  0  0  0  0
  2  4  1  0  0  0  0
  2  5  1  0  0  0  0
  5  6  2  0  0  0  0
  5 10  1  0  0  0  0
  6  7  1  0  0  0  0
  7  8  2  0  0  0  0
  8  9  1  0  0  0  0
  8 25  1  0  0  0  0
  9 10  2  0  0  0  0
  9 11  1  0  0  0  0
 11 12  1  0  0  0  0
 11 16  1  0  0  0  0
 12 13  1  0  0  0  0
 13 14  1  0  0  0  0
 14 15  1  0  0  0  0
 15 16  1  0  0  0  0
 16 17  1  0  0  0  0
 17 18  1  0  0  0  0
 17 25  1  0  0  0  0
 18 19  2  0  0  0  0
 18 24  1  0  0  0  0
 19 20  1  0  0  0  0
 20 21  2  0  0  0  0
 21 22  1  0  0  0  0
 21 23  1  0  0  0  0
 23 24  2  0  0  0  0
  1 26  1  0  0  0  0
  1 27  1  0  0  0  0
  1 28  1  0  0  0  0
  3 29  1  0  0  0  0
  3 30  1  0  0  0  0
  3 31  1  0  0  0  0
  4 32  1  0  0  0  0
  4 33  1  0  0  0  0
  4 34  1  0  0  0  0
  6 35  1  0  0  0  0
  7 36  1  0  0  0  0
 10 37  1  0  0  0  0
 11 38  1  0  0  0  0
 13 39  1  0  0  0  0
 13 40  1  0  0  0  0
 14 41  1  0  0  0  0
 14 42  1  0  0  0  0
 15 43  1  0  0  0  0
 15 44  1  0  0  0  0
 16 45  1  0  0  0  0
 17 46  1  0  0  0  0
 19 47  1  0  0  0  0
 20 48  1  0  0  0  0
 22 49  1  0  0  0  0
 23 50  1  0  0  0  0
 24 51  1  0  0  0  0
 25 52  1  0  0  0  0
M  END
> <ID>
CHEMBL1078691

> <IC50[nM]>
34

$$$$
CHEMBL1078691
  -OEChem-05192314313D
 Structure written by MMmdl.
 52 55  0     1  0  0  0  0  0999 V2000
   10.5284    0.3945   -0.7005 C   0  0  0  0  0  0  0  0  0  0  0  0
   11.9546   -0.1757   -0.7407 C   0  0  0  0  0  0  0  0  0  0  0  0
   12.4165   -0.1649   -2.1966 C   0  0  0  0  0  0  0  0  0  0  0  0
   12.8844    0.7521    0.0824 C   0  0  0  0  0  0  0  0  0  0  0  0
   11.8943   -1.5960   -0.1952 C   0  0  0  0  0  0  0  0  0  0  0  0
   10.8356   -2.4428   -0.5504 C   0  0  0  0  0  0  0  0  0  0  0  0
   10.7698   -3.7406   -0.0534 C   0  0  0  0  0  0  0  0  0  0  0  0
   11.7883   -4.2157    0.7713 C   0  0  0  0  0  0  0  0  0  0  0  0
   12.8596   -3.3846    1.1392 C   0  0  0  0  0  0  0  0  0  0  0  0
   12.8744   -2.0732    0.6730 C   0  0  0  0  0  0  0  0  0  0  0  0
   14.0135   -3.8879    1.9819 C   0  0  1  0  0  0  0  0  0  0  0  0
   13.8030   -3.4515    3.3286 O   0  0  0  0  0  0  0  0  0  0  0  0
   14.8803   -3.7868    4.2124 C   0  0  0  0  0  0  0  0  0  0  0  0
   15.0742   -5.3209    4.2479 C   0  0  0  0  0  0  0  0  0  0  0  0
   15.2231   -5.9051    2.8405 C   0  0  0  0  0  0  0  0  0  0  0  0
   14.1110   -5.4142    1.8892 C   0  0  1  0  0  0  0  0  0  0  0  0
   12.7111   -6.0630    2.1315 C   0  0  2  0  0  0  0  0  0  0  0  0
   12.7590   -7.5693    2.0352 C   0  0  0  0  0  0  0  0  0  0  0  0
   13.2481   -8.1881    0.8802 C   0  0  0  0  0  0  0  0  0  0  0  0
   13.3233   -9.5851    0.8265 C   0  0  0  0  0  0  0  0  0  0  0  0
   12.9107  -10.3576    1.9488 C   0  0  0  0  0  0  0  0  0  0  0  0
   12.9634  -11.6728    2.0898 O   0  0  0  0  0  0  0  0  0  0  0  0
   12.3943   -9.6942    3.0615 C   0  0  0  0  0  0  0  0  0  0  0  0
   12.3151   -8.3134    3.1219 C   0  0  0  0  0  0  0  0  0  0  0  0
   11.7105   -5.5421    1.2053 N   0  0  0  0  0  0  0  0  0  0  0  0
   10.1646    0.4007    0.3376 H   0  0  0  0  0  0  0  0  0  0  0  0
   10.5332    1.4219   -1.0934 H   0  0  0  0  0  0  0  0  0  0  0  0
    9.8661   -0.2308   -1.3173 H   0  0  0  0  0  0  0  0  0  0  0  0
   13.4378   -0.5684   -2.2608 H   0  0  0  0  0  0  0  0  0  0  0  0
   11.7385   -0.7855   -2.8009 H   0  0  0  0  0  0  0  0  0  0  0  0
   12.4056    0.8672   -2.5770 H   0  0  0  0  0  0  0  0  0  0  0  0
   13.9102    0.3554    0.0623 H   0  0  0  0  0  0  0  0  0  0  0  0
   12.8734    1.7621   -0.3533 H   0  0  0  0  0  0  0  0  0  0  0  0
   12.5293    0.7976    1.1225 H   0  0  0  0  0  0  0  0  0  0  0  0
   10.0640   -2.0847   -1.2158 H   0  0  0  0  0  0  0  0  0  0  0  0
    9.9340   -4.3766   -0.3052 H   0  0  0  0  0  0  0  0  0  0  0  0
   13.6645   -1.4095    0.9918 H   0  0  0  0  0  0  0  0  0  0  0  0
   14.9473   -3.4560    1.5927 H   0  0  0  0  0  0  0  0  0  0  0  0
   15.8057   -3.3104    3.8566 H   0  0  0  0  0  0  0  0  0  0  0  0
   14.6475   -3.4251    5.2248 H   0  0  0  0  0  0  0  0  0  0  0  0
   15.9798   -5.5525    4.8278 H   0  0  0  0  0  0  0  0  0  0  0  0
   14.2004   -5.7796    4.7338 H   0  0  0  0  0  0  0  0  0  0  0  0
   16.1987   -5.6028    2.4320 H   0  0  0  0  0  0  0  0  0  0  0  0
   15.1766   -7.0022    2.9048 H   0  0  0  0  0  0  0  0  0  0  0  0
   14.4165   -5.6677    0.8633 H   0  0  0  0  0  0  0  0  0  0  0  0
   12.4055   -5.8019    3.1554 H   0  0  0  0  0  0  0  0  0  0  0  0
   11.7436   -7.5768    1.6122 H   0  0  0  0  0  0  0  0  0  0  0  0
   13.5652   -7.5931    0.0365 H   0  0  0  0  0  0  0  0  0  0  0  0
   13.6927  -10.0746   -0.0625 H   0  0  0  0  0  0  0  0  0  0  0  0
   12.0454  -10.2756    3.9021 H   0  0  0  0  0  0  0  0  0  0  0  0
   11.9157   -7.8233    3.9975 H   0  0  0  0  0  0  0  0  0  0  0  0
   10.8211   -5.6495    1.6497 H   0  0  0  0  0  0  0  0  0  0  0  0
  1  2  1  0  0  0  0
  2  3  1  0  0  0  0
  2  4  1  0  0  0  0
  2  5  1  0  0  0  0
  5  6  2  0  0  0  0
  5 10  1  0  0  0  0
  6  7  1  0  0  0  0
  7  8  2  0  0  0  0
  8  9  1  0  0  0  0
  8 25  1  0  0  0  0
  9 10  2  0  0  0  0
  9 11  1  0  0  0  0
 11 12  1  0  0  0  0
 11 16  1  0  0  0  0
 12 13  1  0  0  0  0
 13 14  1  0  0  0  0
 14 15  1  0  0  0  0
 15 16  1  0  0  0  0
 16 17  1  0  0  0  0
 17 18  1  0  0  0  0
 17 25  1  0  0  0  0
 18 19  1  0  0  0  0
 18 24  1  0  0  0  0
 19 20  2  0  0  0  0
 20 21  1  0  0  0  0
 21 22  2  0  0  0  0
 21 23  1  0  0  0  0
 23 24  2  0  0  0  0
  1 26  1  0  0  0  0
  1 27  1  0  0  0  0
  1 28  1  0  0  0  0
  3 29  1  0  0  0  0
  3 30  1  0  0  0  0
  3 31  1  0  0  0  0
  4 32  1  0  0  0  0
  4 33  1  0  0  0  0
  4 34  1  0  0  0  0
  6 35  1  0  0  0  0
  7 36  1  0  0  0  0
 10 37  1  0  0  0  0
 11 38  1  0  0  0  0
 13 39  1  0  0  0  0
 13 40  1  0  0  0  0
 14 41  1  0  0  0  0
 14 42  1  0  0  0  0
 15 43  1  0  0  0  0
 15 44  1  0  0  0  0
 16 45  1  0  0  0  0
 17 46  1  0  0  0  0
 18 47  1  0  0  0  0
 19 48  1  0  0  0  0
 20 49  1  0  0  0  0
 23 50  1  0  0  0  0
 24 51  1  0  0  0  0
 25 52  1  0  0  0  0
M  END
> <ID>
CHEMBL1078691

> <IC50[nM]>
34

$$$$
CHEMBL1078691
  -OEChem-05192314313D
 Structure written by MMmdl.
 52 55  0     1  0  0  0  0  0999 V2000
   10.5284    0.3945   -0.7005 C   0  0  0  0  0  0  0  0  0  0  0  0
   11.9546   -0.1757   -0.7407 C   0  0  0  0  0  0  0  0  0  0  0  0
   12.4165   -0.1649   -2.1966 C   0  0  0  0  0  0  0  0  0  0  0  0
   12.8844    0.7521    0.0824 C   0  0  0  0  0  0  0  0  0  0  0  0
   11.8943   -1.5960   -0.1952 C   0  0  0  0  0  0  0  0  0  0  0  0
   10.8356   -2.4428   -0.5504 C   0  0  0  0  0  0  0  0  0  0  0  0
   10.7698   -3.7406   -0.0534 C   0  0  0  0  0  0  0  0  0  0  0  0
   11.7883   -4.2157    0.7713 C   0  0  0  0  0  0  0  0  0  0  0  0
   12.8596   -3.3846    1.1392 C   0  0  0  0  0  0  0  0  0  0  0  0
   12.8744   -2.0732    0.6730 C   0  0  0  0  0  0  0  0  0  0  0  0
   14.0135   -3.8879    1.9819 C   0  0  1  0  0  0  0  0  0  0  0  0
   13.8030   -3.4515    3.3286 O   0  0  0  0  0  0  0  0  0  0  0  0
   14.8803   -3.7868    4.2124 C   0  0  0  0  0  0  0  0  0  0  0  0
   15.0742   -5.3209    4.2479 C   0  0  0  0  0  0  0  0  0  0  0  0
   15.2231   -5.9051    2.8405 C   0  0  0  0  0  0  0  0  0  0  0  0
   14.1110   -5.4142    1.8892 C   0  0  1  0  0  0  0  0  0  0  0  0
   12.7111   -6.0630    2.1315 C   0  0  2  0  0  0  0  0  0  0  0  0
   12.7590   -7.5693    2.0352 C   0  0  0  0  0  0  0  0  0  0  0  0
   13.2481   -8.1881    0.8802 C   0  0  0  0  0  0  0  0  0  0  0  0
   13.3233   -9.5851    0.8265 C   0  0  0  0  0  0  0  0  0  0  0  0
   12.9107  -10.3576    1.9488 C   0  0  0  0  0  0  0  0  0  0  0  0
   12.9634  -11.6728    2.0898 O   0  0  0  0  0  0  0  0  0  0  0  0
   12.3943   -9.6942    3.0615 C   0  0  0  0  0  0  0  0  0  0  0  0
   12.3151   -8.3134    3.1219 C   0  0  0  0  0  0  0  0  0  0  0  0
   11.7105   -5.5421    1.2053 N   0  0  0  0  0  0  0  0  0  0  0  0
   10.1646    0.4007    0.3376 H   0  0  0  0  0  0  0  0  0  0  0  0
   10.5332    1.4219   -1.0934 H   0  0  0  0  0  0  0  0  0  0  0  0
    9.8661   -0.2308   -1.3173 H   0  0  0  0  0  0  0  0  0  0  0  0
   13.4378   -0.5684   -2.2608 H   0  0  0  0  0  0  0  0  0  0  0  0
   11.7385   -0.7855   -2.8009 H   0  0  0  0  0  0  0  0  0  0  0  0
   12.4056    0.8672   -2.5770 H   0  0  0  0  0  0  0  0  0  0  0  0
   13.9102    0.3554    0.0623 H   0  0  0  0  0  0  0  0  0  0  0  0
   12.8734    1.7621   -0.3533 H   0  0  0  0  0  0  0  0  0  0  0  0
   12.5293    0.7976    1.1225 H   0  0  0  0  0  0  0  0  0  0  0  0
   10.0640   -2.0847   -1.2158 H   0  0  0  0  0  0  0  0  0  0  0  0
    9.9340   -4.3766   -0.3052 H   0  0  0  0  0  0  0  0  0  0  0  0
   13.6645   -1.4095    0.9918 H   0  0  0  0  0  0  0  0  0  0  0  0
   14.9473   -3.4560    1.5927 H   0  0  0  0  0  0  0  0  0  0  0  0
   15.8057   -3.3104    3.8566 H   0  0  0  0  0  0  0  0  0  0  0  0
   14.6475   -3.4251    5.2248 H   0  0  0  0  0  0  0  0  0  0  0  0
   15.9798   -5.5525    4.8278 H   0  0  0  0  0  0  0  0  0  0  0  0
   14.2004   -5.7796    4.7338 H   0  0  0  0  0  0  0  0  0  0  0  0
   16.1987   -5.6028    2.4320 H   0  0  0  0  0  0  0  0  0  0  0  0
   15.1766   -7.0022    2.9048 H   0  0  0  0  0  0  0  0  0  0  0  0
   14.4165   -5.6677    0.8633 H   0  0  0  0  0  0  0  0  0  0  0  0
   12.4055   -5.8019    3.1554 H   0  0  0  0  0  0  0  0  0  0  0  0
   13.5652   -7.5931    0.0365 H   0  0  0  0  0  0  0  0  0  0  0  0
   12.7055   -9.9052   -0.0255 H   0  0  0  0  0  0  0  0  0  0  0  0
   14.3756   -9.8406    0.6329 H   0  0  0  0  0  0  0  0  0  0  0  0
   12.0454  -10.2756    3.9021 H   0  0  0  0  0  0  0  0  0  0  0  0
   11.9157   -7.8233    3.9975 H   0  0  0  0  0  0  0  0  0  0  0  0
   10.8211   -5.6495    1.6497 H   0  0  0  0  0  0  0  0  0  0  0  0
  1  2  1  0  0  0  0
  2  3  1  0  0  0  0
  2  4  1  0  0  0  0
  2  5  1  0  0  0  0
  5  6  2  0  0  0  0
  5 10  1  0  0  0  0
  6  7  1  0  0  0  0
  7  8  2  0  0  0  0
  8  9  1  0  0  0  0
  8 25  1  0  0  0  0
  9 10  2  0  0  0  0
  9 11  1  0  0  0  0
 11 12  1  0  0  0  0
 11 16  1  0  0  0  0
 12 13  1  0  0  0  0
 13 14  1  0  0  0  0
 14 15  1  0  0  0  0
 15 16  1  0  0  0  0
 16 17  1  0  0  0  0
 17 18  1  0  0  0  0
 17 25  1  0  0  0  0
 18 19  2  0  0  0  0
 18 24  1  0  0  0  0
 19 20  1  0  0  0  0
 20 21  1  0  0  0  0
 21 22  2  0  0  0  0
 21 23  1  0  0  0  0
 23 24  2  0  0  0  0
  1 26  1  0  0  0  0
  1 27  1  0  0  0  0
  1 28  1  0  0  0  0
  3 29  1  0  0  0  0
  3 30  1  0  0  0  0
  3 31  1  0  0  0  0
  4 32  1  0  0  0  0
  4 33  1  0  0  0  0
  4 34  1  0  0  0  0
  6 35  1  0  0  0  0
  7 36  1  0  0  0  0
 10 37  1  0  0  0  0
 11 38  1  0  0  0  0
 13 39  1  0  0  0  0
 13 40  1  0  0  0  0
 14 41  1  0  0  0  0
 14 42  1  0  0  0  0
 15 43  1  0  0  0  0
 15 44  1  0  0  0  0
 16 45  1  0  0  0  0
 17 46  1  0  0  0  0
 19 47  1  0  0  0  0
 20 48  1  0  0  0  0
 20 49  1  0  0  0  0
 23 50  1  0  0  0  0
 24 51  1  0  0  0  0
 25 52  1  0  0  0  0
M  END
> <ID>
CHEMBL1078691

> <IC50[nM]>
34

$$$$
CHEMBL1078691
  -OEChem-05192314313D
 Structure written by MMmdl.
 52 55  0     1  0  0  0  0  0999 V2000
   10.5284    0.3945   -0.7005 C   0  0  0  0  0  0  0  0  0  0  0  0
   11.9546   -0.1757   -0.7407 C   0  0  0  0  0  0  0  0  0  0  0  0
   12.4165   -0.1649   -2.1966 C   0  0  0  0  0  0  0  0  0  0  0  0
   12.8844    0.7521    0.0824 C   0  0  0  0  0  0  0  0  0  0  0  0
   11.8943   -1.5960   -0.1952 C   0  0  0  0  0  0  0  0  0  0  0  0
   10.8356   -2.4428   -0.5504 C   0  0  0  0  0  0  0  0  0  0  0  0
   10.7698   -3.7406   -0.0534 C   0  0  0  0  0  0  0  0  0  0  0  0
   11.7883   -4.2157    0.7713 C   0  0  0  0  0  0  0  0  0  0  0  0
   12.8596   -3.3846    1.1392 C   0  0  0  0  0  0  0  0  0  0  0  0
   12.8744   -2.0732    0.6730 C   0  0  0  0  0  0  0  0  0  0  0  0
   14.0135   -3.8879    1.9819 C   0  0  1  0  0  0  0  0  0  0  0  0
   13.8030   -3.4515    3.3286 O   0  0  0  0  0  0  0  0  0  0  0  0
   14.8803   -3.7868    4.2124 C   0  0  0  0  0  0  0  0  0  0  0  0
   15.0742   -5.3209    4.2479 C   0  0  0  0  0  0  0  0  0  0  0  0
   15.2231   -5.9051    2.8405 C   0  0  0  0  0  0  0  0  0  0  0  0
   14.1110   -5.4142    1.8892 C   0  0  1  0  0  0  0  0  0  0  0  0
   12.7111   -6.0630    2.1315 C   0  0  2  0  0  0  0  0  0  0  0  0
   12.7590   -7.5693    2.0352 C   0  0  0  0  0  0  0  0  0  0  0  0
   13.2481   -8.1881    0.8802 C   0  0  0  0  0  0  0  0  0  0  0  0
   13.3233   -9.5851    0.8265 C   0  0  0  0  0  0  0  0  0  0  0  0
   12.9107  -10.3576    1.9488 C   0  0  0  0  0  0  0  0  0  0  0  0
   12.9634  -11.6728    2.0898 O   0  0  0  0  0  0  0  0  0  0  0  0
   12.3943   -9.6942    3.0615 C   0  0  0  0  0  0  0  0  0  0  0  0
   12.3151   -8.3134    3.1219 C   0  0  0  0  0  0  0  0  0  0  0  0
   11.7105   -5.5421    1.2053 N   0  0  0  0  0  0  0  0  0  0  0  0
   10.1646    0.4007    0.3376 H   0  0  0  0  0  0  0  0  0  0  0  0
   10.5332    1.4219   -1.0934 H   0  0  0  0  0  0  0  0  0  0  0  0
    9.8661   -0.2308   -1.3173 H   0  0  0  0  0  0  0  0  0  0  0  0
   13.4378   -0.5684   -2.2608 H   0  0  0  0  0  0  0  0  0  0  0  0
   11.7385   -0.7855   -2.8009 H   0  0  0  0  0  0  0  0  0  0  0  0
   12.4056    0.8672   -2.5770 H   0  0  0  0  0  0  0  0  0  0  0  0
   13.9102    0.3554    0.0623 H   0  0  0  0  0  0  0  0  0  0  0  0
   12.8734    1.7621   -0.3533 H   0  0  0  0  0  0  0  0  0  0  0  0
   12.5293    0.7976    1.1225 H   0  0  0  0  0  0  0  0  0  0  0  0
   12.4763   -1.9556   -1.0565 H   0  0  0  0  0  0  0  0  0  0  0  0
   10.0640   -2.0847   -1.2158 H   0  0  0  0  0  0  0  0  0  0  0  0
    9.9340   -4.3766   -0.3052 H   0  0  0  0  0  0  0  0  0  0  0  0
   13.6645   -1.4095    0.9918 H   0  0  0  0  0  0  0  0  0  0  0  0
   14.9473   -3.4560    1.5927 H   0  0  0  0  0  0  0  0  0  0  0  0
   15.8057   -3.3104    3.8566 H   0  0  0  0  0  0  0  0  0  0  0  0
   14.6475   -3.4251    5.2248 H   0  0  0  0  0  0  0  0  0  0  0  0
   15.9798   -5.5525    4.8278 H   0  0  0  0  0  0  0  0  0  0  0  0
   14.2004   -5.7796    4.7338 H   0  0  0  0  0  0  0  0  0  0  0  0
   16.1987   -5.6028    2.4320 H   0  0  0  0  0  0  0  0  0  0  0  0
   15.1766   -7.0022    2.9048 H   0  0  0  0  0  0  0  0  0  0  0  0
   14.4165   -5.6677    0.8633 H   0  0  0  0  0  0  0  0  0  0  0  0
   12.4055   -5.8019    3.1554 H   0  0  0  0  0  0  0  0  0  0  0  0
   13.5652   -7.5931    0.0365 H   0  0  0  0  0  0  0  0  0  0  0  0
   13.6927  -10.0746   -0.0625 H   0  0  0  0  0  0  0  0  0  0  0  0
   12.6204  -11.9144    2.9422 H   0  0  0  0  0  0  0  0  0  0  0  0
   12.0454  -10.2756    3.9021 H   0  0  0  0  0  0  0  0  0  0  0  0
   11.9157   -7.8233    3.9975 H   0  0  0  0  0  0  0  0  0  0  0  0
  1  2  1  0  0  0  0
  2  3  1  0  0  0  0
  2  4  1  0  0  0  0
  2  5  1  0  0  0  0
  5  6  1  0  0  0  0
  5 10  1  0  0  0  0
  6  7  2  0  0  0  0
  7  8  1  0  0  0  0
  8  9  1  0  0  0  0
  8 25  2  0  0  0  0
  9 10  2  0  0  0  0
  9 11  1  0  0  0  0
 11 12  1  0  0  0  0
 11 16  1  0  0  0  0
 12 13  1  0  0  0  0
 13 14  1  0  0  0  0
 14 15  1  0  0  0  0
 15 16  1  0  0  0  0
 16 17  1  0  0  0  0
 17 18  1  0  0  0  0
 17 25  1  0  0  0  0
 18 19  2  0  0  0  0
 18 24  1  0  0  0  0
 19 20  1  0  0  0  0
 20 21  2  0  0  0  0
 21 22  1  0  0  0  0
 21 23  1  0  0  0  0
 23 24  2  0  0  0  0
  1 26  1  0  0  0  0
  1 27  1  0  0  0  0
  1 28  1  0  0  0  0
  3 29  1  0  0  0  0
  3 30  1  0  0  0  0
  3 31  1  0  0  0  0
  4 32  1  0  0  0  0
  4 33  1  0  0  0  0
  4 34  1  0  0  0  0
  5 35  1  0  0  0  0
  6 36  1  0  0  0  0
  7 37  1  0  0  0  0
 10 38  1  0  0  0  0
 11 39  1  0  0  0  0
 13 40  1  0  0  0  0
 13 41  1  0  0  0  0
 14 42  1  0  0  0  0
 14 43  1  0  0  0  0
 15 44  1  0  0  0  0
 15 45  1  0  0  0  0
 16 46  1  0  0  0  0
 17 47  1  0  0  0  0
 19 48  1  0  0  0  0
 20 49  1  0  0  0  0
 22 50  1  0  0  0  0
 23 51  1  0  0  0  0
 24 52  1  0  0  0  0
M  END
> <ID>
CHEMBL1078691

> <IC50[nM]>
34

$$$$
CHEMBL1078691
  -OEChem-05192314313D
 Structure written by MMmdl.
 52 55  0     1  0  0  0  0  0999 V2000
   10.5284    0.3945   -0.7005 C   0  0  0  0  0  0  0  0  0  0  0  0
   11.9546   -0.1757   -0.7407 C   0  0  0  0  0  0  0  0  0  0  0  0
   12.4165   -0.1649   -2.1966 C   0  0  0  0  0  0  0  0  0  0  0  0
   12.8844    0.7521    0.0824 C   0  0  0  0  0  0  0  0  0  0  0  0
   11.8943   -1.5960   -0.1952 C   0  0  0  0  0  0  0  0  0  0  0  0
   10.8356   -2.4428   -0.5504 C   0  0  0  0  0  0  0  0  0  0  0  0
   10.7698   -3.7406   -0.0534 C   0  0  0  0  0  0  0  0  0  0  0  0
   11.7883   -4.2157    0.7713 C   0  0  0  0  0  0  0  0  0  0  0  0
   12.8596   -3.3846    1.1392 C   0  0  0  0  0  0  0  0  0  0  0  0
   12.8744   -2.0732    0.6730 C   0  0  0  0  0  0  0  0  0  0  0  0
   14.0135   -3.8879    1.9819 C   0  0  1  0  0  0  0  0  0  0  0  0
   13.8030   -3.4515    3.3286 O   0  0  0  0  0  0  0  0  0  0  0  0
   14.8803   -3.7868    4.2124 C   0  0  0  0  0  0  0  0  0  0  0  0
   15.0742   -5.3209    4.2479 C   0  0  0  0  0  0  0  0  0  0  0  0
   15.2231   -5.9051    2.8405 C   0  0  0  0  0  0  0  0  0  0  0  0
   14.1110   -5.4142    1.8892 C   0  0  1  0  0  0  0  0  0  0  0  0
   12.7111   -6.0630    2.1315 C   0  0  2  0  0  0  0  0  0  0  0  0
   12.7590   -7.5693    2.0352 C   0  0  0  0  0  0  0  0  0  0  0  0
   13.2481   -8.1881    0.8802 C   0  0  0  0  0  0  0  0  0  0  0  0
   13.3233   -9.5851    0.8265 C   0  0  0  0  0  0  0  0  0  0  0  0
   12.9107  -10.3576    1.9488 C   0  0  0  0  0  0  0  0  0  0  0  0
   12.9634  -11.6728    2.0898 O   0  0  0  0  0  0  0  0  0  0  0  0
   12.3943   -9.6942    3.0615 C   0  0  0  0  0  0  0  0  0  0  0  0
   12.3151   -8.3134    3.1219 C   0  0  0  0  0  0  0  0  0  0  0  0
   11.7105   -5.5421    1.2053 N   0  0  0  0  0  0  0  0  0  0  0  0
   10.1646    0.4007    0.3376 H   0  0  0  0  0  0  0  0  0  0  0  0
   10.5332    1.4219   -1.0934 H   0  0  0  0  0  0  0  0  0  0  0  0
    9.8661   -0.2308   -1.3173 H   0  0  0  0  0  0  0  0  0  0  0  0
   13.4378   -0.5684   -2.2608 H   0  0  0  0  0  0  0  0  0  0  0  0
   11.7385   -0.7855   -2.8009 H   0  0  0  0  0  0  0  0  0  0  0  0
   12.4056    0.8672   -2.5770 H   0  0  0  0  0  0  0  0  0  0  0  0
   13.9102    0.3554    0.0623 H   0  0  0  0  0  0  0  0  0  0  0  0
   12.8734    1.7621   -0.3533 H   0  0  0  0  0  0  0  0  0  0  0  0
   12.5293    0.7976    1.1225 H   0  0  0  0  0  0  0  0  0  0  0  0
   10.0640   -2.0847   -1.2158 H   0  0  0  0  0  0  0  0  0  0  0  0
    9.9340   -4.3766   -0.3052 H   0  0  0  0  0  0  0  0  0  0  0  0
   12.3205   -3.0698    2.0449 H   0  0  0  0  0  0  0  0  0  0  0  0
   13.6645   -1.4095    0.9918 H   0  0  0  0  0  0  0  0  0  0  0  0
   14.9473   -3.4560    1.5927 H   0  0  0  0  0  0  0  0  0  0  0  0
   15.8057   -3.3104    3.8566 H   0  0  0  0  0  0  0  0  0  0  0  0
   14.6475   -3.4251    5.2248 H   0  0  0  0  0  0  0  0  0  0  0  0
   15.9798   -5.5525    4.8278 H   0  0  0  0  0  0  0  0  0  0  0  0
   14.2004   -5.7796    4.7338 H   0  0  0  0  0  0  0  0  0  0  0  0
   16.1987   -5.6028    2.4320 H   0  0  0  0  0  0  0  0  0  0  0  0
   15.1766   -7.0022    2.9048 H   0  0  0  0  0  0  0  0  0  0  0  0
   14.4165   -5.6677    0.8633 H   0  0  0  0  0  0  0  0  0  0  0  0
   12.4055   -5.8019    3.1554 H   0  0  0  0  0  0  0  0  0  0  0  0
   13.5652   -7.5931    0.0365 H   0  0  0  0  0  0  0  0  0  0  0  0
   13.6927  -10.0746   -0.0625 H   0  0  0  0  0  0  0  0  0  0  0  0
   12.6204  -11.9144    2.9422 H   0  0  0  0  0  0  0  0  0  0  0  0
   12.0454  -10.2756    3.9021 H   0  0  0  0  0  0  0  0  0  0  0  0
   11.9157   -7.8233    3.9975 H   0  0  0  0  0  0  0  0  0  0  0  0
  1  2  1  0  0  0  0
  2  3  1  0  0  0  0
  2  4  1  0  0  0  0
  2  5  1  0  0  0  0
  5  6  1  0  0  0  0
  5 10  2  0  0  0  0
  6  7  2  0  0  0  0
  7  8  1  0  0  0  0
  8  9  1  0  0  0  0
  8 25  2  0  0  0  0
  9 10  1  0  0  0  0
  9 11  1  0  0  0  0
 11 12  1  0  0  0  0
 11 16  1  0  0  0  0
 12 13  1  0  0  0  0
 13 14  1  0  0  0  0
 14 15  1  0  0  0  0
 15 16  1  0  0  0  0
 16 17  1  0  0  0  0
 17 18  1  0  0  0  0
 17 25  1  0  0  0  0
 18 19  2  0  0  0  0
 18 24  1  0  0  0  0
 19 20  1  0  0  0  0
 20 21  2  0  0  0  0
 21 22  1  0  0  0  0
 21 23  1  0  0  0  0
 23 24  2  0  0  0  0
  1 26  1  0  0  0  0
  1 27  1  0  0  0  0
  1 28  1  0  0  0  0
  3 29  1  0  0  0  0
  3 30  1  0  0  0  0
  3 31  1  0  0  0  0
  4 32  1  0  0  0  0
  4 33  1  0  0  0  0
  4 34  1  0  0  0  0
  6 35  1  0  0  0  0
  7 36  1  0  0  0  0
  9 37  1  0  0  0  0
 10 38  1  0  0  0  0
 11 39  1  0  0  0  0
 13 40  1  0  0  0  0
 13 41  1  0  0  0  0
 14 42  1  0  0  0  0
 14 43  1  0  0  0  0
 15 44  1  0  0  0  0
 15 45  1  0  0  0  0
 16 46  1  0  0  0  0
 17 47  1  0  0  0  0
 19 48  1  0  0  0  0
 20 49  1  0  0  0  0
 22 50  1  0  0  0  0
 23 51  1  0  0  0  0
 24 52  1  0  0  0  0
M  END
> <ID>
CHEMBL1078691

> <IC50[nM]>
34

$$$$
CHEMBL1078691
  -OEChem-05192314313D
 Structure written by MMmdl.
 52 55  0     1  0  0  0  0  0999 V2000
   10.5284    0.3945   -0.7005 C   0  0  0  0  0  0  0  0  0  0  0  0
   11.9546   -0.1757   -0.7407 C   0  0  0  0  0  0  0  0  0  0  0  0
   12.4165   -0.1649   -2.1966 C   0  0  0  0  0  0  0  0  0  0  0  0
   12.8844    0.7521    0.0824 C   0  0  0  0  0  0  0  0  0  0  0  0
   11.8943   -1.5960   -0.1952 C   0  0  0  0  0  0  0  0  0  0  0  0
   10.8356   -2.4428   -0.5504 C   0  0  0  0  0  0  0  0  0  0  0  0
   10.7698   -3.7406   -0.0534 C   0  0  0  0  0  0  0  0  0  0  0  0
   11.7883   -4.2157    0.7713 C   0  0  0  0  0  0  0  0  0  0  0  0
   12.8596   -3.3846    1.1392 C   0  0  0  0  0  0  0  0  0  0  0  0
   12.8744   -2.0732    0.6730 C   0  0  0  0  0  0  0  0  0  0  0  0
   14.0135   -3.8879    1.9819 C   0  0  1  0  0  0  0  0  0  0  0  0
   13.8030   -3.4515    3.3286 O   0  0  0  0  0  0  0  0  0  0  0  0
   14.8803   -3.7868    4.2124 C   0  0  0  0  0  0  0  0  0  0  0  0
   15.0742   -5.3209    4.2479 C   0  0  0  0  0  0  0  0  0  0  0  0
   15.2231   -5.9051    2.8405 C   0  0  0  0  0  0  0  0  0  0  0  0
   14.1110   -5.4142    1.8892 C   0  0  1  0  0  0  0  0  0  0  0  0
   12.7111   -6.0630    2.1315 C   0  0  2  0  0  0  0  0  0  0  0  0
   12.7590   -7.5693    2.0352 C   0  0  0  0  0  0  0  0  0  0  0  0
   13.2481   -8.1881    0.8802 C   0  0  0  0  0  0  0  0  0  0  0  0
   13.3233   -9.5851    0.8265 C   0  0  0  0  0  0  0  0  0  0  0  0
   12.9107  -10.3576    1.9488 C   0  0  0  0  0  0  0  0  0  0  0  0
   12.9634  -11.6728    2.0898 O   0  0  0  0  0  0  0  0  0  0  0  0
   12.3943   -9.6942    3.0615 C   0  0  0  0  0  0  0  0  0  0  0  0
   12.3151   -8.3134    3.1219 C   0  0  0  0  0  0  0  0  0  0  0  0
   11.7105   -5.5421    1.2053 N   0  0  0  0  0  0  0  0  0  0  0  0
   10.1646    0.4007    0.3376 H   0  0  0  0  0  0  0  0  0  0  0  0
   10.5332    1.4219   -1.0934 H   0  0  0  0  0  0  0  0  0  0  0  0
    9.8661   -0.2308   -1.3173 H   0  0  0  0  0  0  0  0  0  0  0  0
   13.4378   -0.5684   -2.2608 H   0  0  0  0  0  0  0  0  0  0  0  0
   11.7385   -0.7855   -2.8009 H   0  0  0  0  0  0  0  0  0  0  0  0
   12.4056    0.8672   -2.5770 H   0  0  0  0  0  0  0  0  0  0  0  0
   13.9102    0.3554    0.0623 H   0  0  0  0  0  0  0  0  0  0  0  0
   12.8734    1.7621   -0.3533 H   0  0  0  0  0  0  0  0  0  0  0  0
   12.5293    0.7976    1.1225 H   0  0  0  0  0  0  0  0  0  0  0  0
   10.0640   -2.0847   -1.2158 H   0  0  0  0  0  0  0  0  0  0  0  0
    9.8338   -3.8159    0.5196 H   0  0  0  0  0  0  0  0  0  0  0  0
   10.7229   -4.4133   -0.9225 H   0  0  0  0  0  0  0  0  0  0  0  0
   13.6645   -1.4095    0.9918 H   0  0  0  0  0  0  0  0  0  0  0  0
   14.9473   -3.4560    1.5927 H   0  0  0  0  0  0  0  0  0  0  0  0
   15.8057   -3.3104    3.8566 H   0  0  0  0  0  0  0  0  0  0  0  0
   14.6475   -3.4251    5.2248 H   0  0  0  0  0  0  0  0  0  0  0  0
   15.9798   -5.5525    4.8278 H   0  0  0  0  0  0  0  0  0  0  0  0
   14.2004   -5.7796    4.7338 H   0  0  0  0  0  0  0  0  0  0  0  0
   16.1987   -5.6028    2.4320 H   0  0  0  0  0  0  0  0  0  0  0  0
   15.1766   -7.0022    2.9048 H   0  0  0  0  0  0  0  0  0  0  0  0
   14.4165   -5.6677    0.8633 H   0  0  0  0  0  0  0  0  0  0  0  0
   12.4055   -5.8019    3.1554 H   0  0  0  0  0  0  0  0  0  0  0  0
   13.5652   -7.5931    0.0365 H   0  0  0  0  0  0  0  0  0  0  0  0
   13.6927  -10.0746   -0.0625 H   0  0  0  0  0  0  0  0  0  0  0  0
   12.6204  -11.9144    2.9422 H   0  0  0  0  0  0  0  0  0  0  0  0
   12.0454  -10.2756    3.9021 H   0  0  0  0  0  0  0  0  0  0  0  0
   11.9157   -7.8233    3.9975 H   0  0  0  0  0  0  0  0  0  0  0  0
  1  2  1  0  0  0  0
  2  3  1  0  0  0  0
  2  4  1  0  0  0  0
  2  5  1  0  0  0  0
  5  6  2  0  0  0  0
  5 10  1  0  0  0  0
  6  7  1  0  0  0  0
  7  8  1  0  0  0  0
  8  9  1  0  0  0  0
  8 25  2  0  0  0  0
  9 10  2  0  0  0  0
  9 11  1  0  0  0  0
 11 12  1  0  0  0  0
 11 16  1  0  0  0  0
 12 13  1  0  0  0  0
 13 14  1  0  0  0  0
 14 15  1  0  0  0  0
 15 16  1  0  0  0  0
 16 17  1  0  0  0  0
 17 18  1  0  0  0  0
 17 25  1  0  0  0  0
 18 19  2  0  0  0  0
 18 24  1  0  0  0  0
 19 20  1  0  0  0  0
 20 21  2  0  0  0  0
 21 22  1  0  0  0  0
 21 23  1  0  0  0  0
 23 24  2  0  0  0  0
  1 26  1  0  0  0  0
  1 27  1  0  0  0  0
  1 28  1  0  0  0  0
  3 29  1  0  0  0  0
  3 30  1  0  0  0  0
  3 31  1  0  0  0  0
  4 32  1  0  0  0  0
  4 33  1  0  0  0  0
  4 34  1  0  0  0  0
  6 35  1  0  0  0  0
  7 36  1  0  0  0  0
  7 37  1  0  0  0  0
 10 38  1  0  0  0  0
 11 39  1  0  0  0  0
 13 40  1  0  0  0  0
 13 41  1  0  0  0  0
 14 42  1  0  0  0  0
 14 43  1  0  0  0  0
 15 44  1  0  0  0  0
 15 45  1  0  0  0  0
 16 46  1  0  0  0  0
 17 47  1  0  0  0  0
 19 48  1  0  0  0  0
 20 49  1  0  0  0  0
 22 50  1  0  0  0  0
 23 51  1  0  0  0  0
 24 52  1  0  0  0  0
M  END
> <ID>
CHEMBL1078691

> <IC50[nM]>
34

$$$$
CHEMBL1078691
  -OEChem-05192314313D
 Structure written by MMmdl.
 52 55  0     1  0  0  0  0  0999 V2000
   10.5284    0.3945   -0.7005 C   0  0  0  0  0  0  0  0  0  0  0  0
   11.9546   -0.1757   -0.7407 C   0  0  0  0  0  0  0  0  0  0  0  0
   12.4165   -0.1649   -2.1966 C   0  0  0  0  0  0  0  0  0  0  0  0
   12.8844    0.7521    0.0824 C   0  0  0  0  0  0  0  0  0  0  0  0
   11.8943   -1.5960   -0.1952 C   0  0  0  0  0  0  0  0  0  0  0  0
   10.8356   -2.4428   -0.5504 C   0  0  0  0  0  0  0  0  0  0  0  0
   10.7698   -3.7406   -0.0534 C   0  0  0  0  0  0  0  0  0  0  0  0
   11.7883   -4.2157    0.7713 C   0  0  0  0  0  0  0  0  0  0  0  0
   12.8596   -3.3846    1.1392 C   0  0  0  0  0  0  0  0  0  0  0  0
   12.8744   -2.0732    0.6730 C   0  0  0  0  0  0  0  0  0  0  0  0
   14.0135   -3.8879    1.9819 C   0  0  1  0  0  0  0  0  0  0  0  0
   13.8030   -3.4515    3.3286 O   0  0  0  0  0  0  0  0  0  0  0  0
   14.8803   -3.7868    4.2124 C   0  0  0  0  0  0  0  0  0  0  0  0
   15.0742   -5.3209    4.2479 C   0  0  0  0  0  0  0  0  0  0  0  0
   15.2231   -5.9051    2.8405 C   0  0  0  0  0  0  0  0  0  0  0  0
   14.1110   -5.4142    1.8892 C   0  0  1  0  0  0  0  0  0  0  0  0
   12.7111   -6.0630    2.1315 C   0  0  2  0  0  0  0  0  0  0  0  0
   12.7590   -7.5693    2.0352 C   0  0  0  0  0  0  0  0  0  0  0  0
   13.2481   -8.1881    0.8802 C   0  0  0  0  0  0  0  0  0  0  0  0
   13.3233   -9.5851    0.8265 C   0  0  0  0  0  0  0  0  0  0  0  0
   12.9107  -10.3576    1.9488 C   0  0  0  0  0  0  0  0  0  0  0  0
   12.9634  -11.6728    2.0898 O   0  0  0  0  0  0  0  0  0  0  0  0
   12.3943   -9.6942    3.0615 C   0  0  0  0  0  0  0  0  0  0  0  0
   12.3151   -8.3134    3.1219 C   0  0  0  0  0  0  0  0  0  0  0  0
   11.7105   -5.5421    1.2053 N   0  0  0  0  0  0  0  0  0  0  0  0
   10.1646    0.4007    0.3376 H   0  0  0  0  0  0  0  0  0  0  0  0
   10.5332    1.4219   -1.0934 H   0  0  0  0  0  0  0  0  0  0  0  0
    9.8661   -0.2308   -1.3173 H   0  0  0  0  0  0  0  0  0  0  0  0
   13.4378   -0.5684   -2.2608 H   0  0  0  0  0  0  0  0  0  0  0  0
   11.7385   -0.7855   -2.8009 H   0  0  0  0  0  0  0  0  0  0  0  0
   12.4056    0.8672   -2.5770 H   0  0  0  0  0  0  0  0  0  0  0  0
   13.9102    0.3554    0.0623 H   0  0  0  0  0  0  0  0  0  0  0  0
   12.8734    1.7621   -0.3533 H   0  0  0  0  0  0  0  0  0  0  0  0
   12.5293    0.7976    1.1225 H   0  0  0  0  0  0  0  0  0  0  0  0
   12.4763   -1.9556   -1.0565 H   0  0  0  0  0  0  0  0  0  0  0  0
   10.0640   -2.0847   -1.2158 H   0  0  0  0  0  0  0  0  0  0  0  0
    9.9340   -4.3766   -0.3052 H   0  0  0  0  0  0  0  0  0  0  0  0
   13.6645   -1.4095    0.9918 H   0  0  0  0  0  0  0  0  0  0  0  0
   14.9473   -3.4560    1.5927 H   0  0  0  0  0  0  0  0  0  0  0  0
   15.8057   -3.3104    3.8566 H   0  0  0  0  0  0  0  0  0  0  0  0
   14.6475   -3.4251    5.2248 H   0  0  0  0  0  0  0  0  0  0  0  0
   15.9798   -5.5525    4.8278 H   0  0  0  0  0  0  0  0  0  0  0  0
   14.2004   -5.7796    4.7338 H   0  0  0  0  0  0  0  0  0  0  0  0
   16.1987   -5.6028    2.4320 H   0  0  0  0  0  0  0  0  0  0  0  0
   15.1766   -7.0022    2.9048 H   0  0  0  0  0  0  0  0  0  0  0  0
   14.4165   -5.6677    0.8633 H   0  0  0  0  0  0  0  0  0  0  0  0
   12.4055   -5.8019    3.1554 H   0  0  0  0  0  0  0  0  0  0  0  0
   11.7436   -7.5768    1.6122 H   0  0  0  0  0  0  0  0  0  0  0  0
   13.5652   -7.5931    0.0365 H   0  0  0  0  0  0  0  0  0  0  0  0
   13.6927  -10.0746   -0.0625 H   0  0  0  0  0  0  0  0  0  0  0  0
   12.0454  -10.2756    3.9021 H   0  0  0  0  0  0  0  0  0  0  0  0
   11.9157   -7.8233    3.9975 H   0  0  0  0  0  0  0  0  0  0  0  0
  1  2  1  0  0  0  0
  2  3  1  0  0  0  0
  2  4  1  0  0  0  0
  2  5  1  0  0  0  0
  5  6  1  0  0  0  0
  5 10  1  0  0  0  0
  6  7  2  0  0  0  0
  7  8  1  0  0  0  0
  8  9  1  0  0  0  0
  8 25  2  0  0  0  0
  9 10  2  0  0  0  0
  9 11  1  0  0  0  0
 11 12  1  0  0  0  0
 11 16  1  0  0  0  0
 12 13  1  0  0  0  0
 13 14  1  0  0  0  0
 14 15  1  0  0  0  0
 15 16  1  0  0  0  0
 16 17  1  0  0  0  0
 17 18  1  0  0  0  0
 17 25  1  0  0  0  0
 18 19  1  0  0  0  0
 18 24  1  0  0  0  0
 19 20  2  0  0  0  0
 20 21  1  0  0  0  0
 21 22  2  0  0  0  0
 21 23  1  0  0  0  0
 23 24  2  0  0  0  0
  1 26  1  0  0  0  0
  1 27  1  0  0  0  0
  1 28  1  0  0  0  0
  3 29  1  0  0  0  0
  3 30  1  0  0  0  0
  3 31  1  0  0  0  0
  4 32  1  0  0  0  0
  4 33  1  0  0  0  0
  4 34  1  0  0  0  0
  5 35  1  0  0  0  0
  6 36  1  0  0  0  0
  7 37  1  0  0  0  0
 10 38  1  0  0  0  0
 11 39  1  0  0  0  0
 13 40  1  0  0  0  0
 13 41  1  0  0  0  0
 14 42  1  0  0  0  0
 14 43  1  0  0  0  0
 15 44  1  0  0  0  0
 15 45  1  0  0  0  0
 16 46  1  0  0  0  0
 17 47  1  0  0  0  0
 18 48  1  0  0  0  0
 19 49  1  0  0  0  0
 20 50  1  0  0  0  0
 23 51  1  0  0  0  0
 24 52  1  0  0  0  0
M  END
> <ID>
CHEMBL1078691

> <IC50[nM]>
34

$$$$
CHEMBL1078691
  -OEChem-05192314313D
 Structure written by MMmdl.
 52 55  0     1  0  0  0  0  0999 V2000
   10.5284    0.3945   -0.7005 C   0  0  0  0  0  0  0  0  0  0  0  0
   11.9546   -0.1757   -0.7407 C   0  0  0  0  0  0  0  0  0  0  0  0
   12.4165   -0.1649   -2.1966 C   0  0  0  0  0  0  0  0  0  0  0  0
   12.8844    0.7521    0.0824 C   0  0  0  0  0  0  0  0  0  0  0  0
   11.8943   -1.5960   -0.1952 C   0  0  0  0  0  0  0  0  0  0  0  0
   10.8356   -2.4428   -0.5504 C   0  0  0  0  0  0  0  0  0  0  0  0
   10.7698   -3.7406   -0.0534 C   0  0  0  0  0  0  0  0  0  0  0  0
   11.7883   -4.2157    0.7713 C   0  0  0  0  0  0  0  0  0  0  0  0
   12.8596   -3.3846    1.1392 C   0  0  0  0  0  0  0  0  0  0  0  0
   12.8744   -2.0732    0.6730 C   0  0  0  0  0  0  0  0  0  0  0  0
   14.0135   -3.8879    1.9819 C   0  0  1  0  0  0  0  0  0  0  0  0
   13.8030   -3.4515    3.3286 O   0  0  0  0  0  0  0  0  0  0  0  0
   14.8803   -3.7868    4.2124 C   0  0  0  0  0  0  0  0  0  0  0  0
   15.0742   -5.3209    4.2479 C   0  0  0  0  0  0  0  0  0  0  0  0
   15.2231   -5.9051    2.8405 C   0  0  0  0  0  0  0  0  0  0  0  0
   14.1110   -5.4142    1.8892 C   0  0  1  0  0  0  0  0  0  0  0  0
   12.7111   -6.0630    2.1315 C   0  0  2  0  0  0  0  0  0  0  0  0
   12.7590   -7.5693    2.0352 C   0  0  0  0  0  0  0  0  0  0  0  0
   13.2481   -8.1881    0.8802 C   0  0  0  0  0  0  0  0  0  0  0  0
   13.3233   -9.5851    0.8265 C   0  0  0  0  0  0  0  0  0  0  0  0
   12.9107  -10.3576    1.9488 C   0  0  0  0  0  0  0  0  0  0  0  0
   12.9634  -11.6728    2.0898 O   0  0  0  0  0  0  0  0  0  0  0  0
   12.3943   -9.6942    3.0615 C   0  0  0  0  0  0  0  0  0  0  0  0
   12.3151   -8.3134    3.1219 C   0  0  0  0  0  0  0  0  0  0  0  0
   11.7105   -5.5421    1.2053 N   0  0  0  0  0  0  0  0  0  0  0  0
   10.1646    0.4007    0.3376 H   0  0  0  0  0  0  0  0  0  0  0  0
   10.5332    1.4219   -1.0934 H   0  0  0  0  0  0  0  0  0  0  0  0
    9.8661   -0.2308   -1.3173 H   0  0  0  0  0  0  0  0  0  0  0  0
   13.4378   -0.5684   -2.2608 H   0  0  0  0  0  0  0  0  0  0  0  0
   11.7385   -0.7855   -2.8009 H   0  0  0  0  0  0  0  0  0  0  0  0
   12.4056    0.8672   -2.5770 H   0  0  0  0  0  0  0  0  0  0  0  0
   13.9102    0.3554    0.0623 H   0  0  0  0  0  0  0  0  0  0  0  0
   12.8734    1.7621   -0.3533 H   0  0  0  0  0  0  0  0  0  0  0  0
   12.5293    0.7976    1.1225 H   0  0  0  0  0  0  0  0  0  0  0  0
   12.4763   -1.9556   -1.0565 H   0  0  0  0  0  0  0  0  0  0  0  0
   10.0640   -2.0847   -1.2158 H   0  0  0  0  0  0  0  0  0  0  0  0
    9.9340   -4.3766   -0.3052 H   0  0  0  0  0  0  0  0  0  0  0  0
   13.6645   -1.4095    0.9918 H   0  0  0  0  0  0  0  0  0  0  0  0
   14.9473   -3.4560    1.5927 H   0  0  0  0  0  0  0  0  0  0  0  0
   15.8057   -3.3104    3.8566 H   0  0  0  0  0  0  0  0  0  0  0  0
   14.6475   -3.4251    5.2248 H   0  0  0  0  0  0  0  0  0  0  0  0
   15.9798   -5.5525    4.8278 H   0  0  0  0  0  0  0  0  0  0  0  0
   14.2004   -5.7796    4.7338 H   0  0  0  0  0  0  0  0  0  0  0  0
   16.1987   -5.6028    2.4320 H   0  0  0  0  0  0  0  0  0  0  0  0
   15.1766   -7.0022    2.9048 H   0  0  0  0  0  0  0  0  0  0  0  0
   14.4165   -5.6677    0.8633 H   0  0  0  0  0  0  0  0  0  0  0  0
   12.4055   -5.8019    3.1554 H   0  0  0  0  0  0  0  0  0  0  0  0
   13.5652   -7.5931    0.0365 H   0  0  0  0  0  0  0  0  0  0  0  0
   12.7055   -9.9052   -0.0255 H   0  0  0  0  0  0  0  0  0  0  0  0
   14.3756   -9.8406    0.6329 H   0  0  0  0  0  0  0  0  0  0  0  0
   12.0454  -10.2756    3.9021 H   0  0  0  0  0  0  0  0  0  0  0  0
   11.9157   -7.8233    3.9975 H   0  0  0  0  0  0  0  0  0  0  0  0
  1  2  1  0  0  0  0
  2  3  1  0  0  0  0
  2  4  1  0  0  0  0
  2  5  1  0  0  0  0
  5  6  1  0  0  0  0
  5 10  1  0  0  0  0
  6  7  2  0  0  0  0
  7  8  1  0  0  0  0
  8  9  1  0  0  0  0
  8 25  2  0  0  0  0
  9 10  2  0  0  0  0
  9 11  1  0  0  0  0
 11 12  1  0  0  0  0
 11 16  1  0  0  0  0
 12 13  1  0  0  0  0
 13 14  1  0  0  0  0
 14 15  1  0  0  0  0
 15 16  1  0  0  0  0
 16 17  1  0  0  0  0
 17 18  1  0  0  0  0
 17 25  1  0  0  0  0
 18 19  2  0  0  0  0
 18 24  1  0  0  0  0
 19 20  1  0  0  0  0
 20 21  1  0  0  0  0
 21 22  2  0  0  0  0
 21 23  1  0  0  0  0
 23 24  2  0  0  0  0
  1 26  1  0  0  0  0
  1 27  1  0  0  0  0
  1 28  1  0  0  0  0
  3 29  1  0  0  0  0
  3 30  1  0  0  0  0
  3 31  1  0  0  0  0
  4 32  1  0  0  0  0
  4 33  1  0  0  0  0
  4 34  1  0  0  0  0
  5 35  1  0  0  0  0
  6 36  1  0  0  0  0
  7 37  1  0  0  0  0
 10 38  1  0  0  0  0
 11 39  1  0  0  0  0
 13 40  1  0  0  0  0
 13 41  1  0  0  0  0
 14 42  1  0  0  0  0
 14 43  1  0  0  0  0
 15 44  1  0  0  0  0
 15 45  1  0  0  0  0
 16 46  1  0  0  0  0
 17 47  1  0  0  0  0
 19 48  1  0  0  0  0
 20 49  1  0  0  0  0
 20 50  1  0  0  0  0
 23 51  1  0  0  0  0
 24 52  1  0  0  0  0
M  END
> <ID>
CHEMBL1078691

> <IC50[nM]>
34

$$$$
CHEMBL1078691
  -OEChem-05192314313D
 Structure written by MMmdl.
 52 55  0     1  0  0  0  0  0999 V2000
   10.5284    0.3945   -0.7005 C   0  0  0  0  0  0  0  0  0  0  0  0
   11.9546   -0.1757   -0.7407 C   0  0  0  0  0  0  0  0  0  0  0  0
   12.4165   -0.1649   -2.1966 C   0  0  0  0  0  0  0  0  0  0  0  0
   12.8844    0.7521    0.0824 C   0  0  0  0  0  0  0  0  0  0  0  0
   11.8943   -1.5960   -0.1952 C   0  0  0  0  0  0  0  0  0  0  0  0
   10.8356   -2.4428   -0.5504 C   0  0  0  0  0  0  0  0  0  0  0  0
   10.7698   -3.7406   -0.0534 C   0  0  0  0  0  0  0  0  0  0  0  0
   11.7883   -4.2157    0.7713 C   0  0  0  0  0  0  0  0  0  0  0  0
   12.8596   -3.3846    1.1392 C   0  0  0  0  0  0  0  0  0  0  0  0
   12.8744   -2.0732    0.6730 C   0  0  0  0  0  0  0  0  0  0  0  0
   14.0135   -3.8879    1.9819 C   0  0  1  0  0  0  0  0  0  0  0  0
   13.8030   -3.4515    3.3286 O   0  0  0  0  0  0  0  0  0  0  0  0
   14.8803   -3.7868    4.2124 C   0  0  0  0  0  0  0  0  0  0  0  0
   15.0742   -5.3209    4.2479 C   0  0  0  0  0  0  0  0  0  0  0  0
   15.2231   -5.9051    2.8405 C   0  0  0  0  0  0  0  0  0  0  0  0
   14.1110   -5.4142    1.8892 C   0  0  1  0  0  0  0  0  0  0  0  0
   12.7111   -6.0630    2.1315 C   0  0  2  0  0  0  0  0  0  0  0  0
   12.7590   -7.5693    2.0352 C   0  0  0  0  0  0  0  0  0  0  0  0
   13.2481   -8.1881    0.8802 C   0  0  0  0  0  0  0  0  0  0  0  0
   13.3233   -9.5851    0.8265 C   0  0  0  0  0  0  0  0  0  0  0  0
   12.9107  -10.3576    1.9488 C   0  0  0  0  0  0  0  0  0  0  0  0
   12.9634  -11.6728    2.0898 O   0  0  0  0  0  0  0  0  0  0  0  0
   12.3943   -9.6942    3.0615 C   0  0  0  0  0  0  0  0  0  0  0  0
   12.3151   -8.3134    3.1219 C   0  0  0  0  0  0  0  0  0  0  0  0
   11.7105   -5.5421    1.2053 N   0  0  0  0  0  0  0  0  0  0  0  0
   10.1646    0.4007    0.3376 H   0  0  0  0  0  0  0  0  0  0  0  0
   10.5332    1.4219   -1.0934 H   0  0  0  0  0  0  0  0  0  0  0  0
    9.8661   -0.2308   -1.3173 H   0  0  0  0  0  0  0  0  0  0  0  0
   13.4378   -0.5684   -2.2608 H   0  0  0  0  0  0  0  0  0  0  0  0
   11.7385   -0.7855   -2.8009 H   0  0  0  0  0  0  0  0  0  0  0  0
   12.4056    0.8672   -2.5770 H   0  0  0  0  0  0  0  0  0  0  0  0
   13.9102    0.3554    0.0623 H   0  0  0  0  0  0  0  0  0  0  0  0
   12.8734    1.7621   -0.3533 H   0  0  0  0  0  0  0  0  0  0  0  0
   12.5293    0.7976    1.1225 H   0  0  0  0  0  0  0  0  0  0  0  0
   10.0640   -2.0847   -1.2158 H   0  0  0  0  0  0  0  0  0  0  0  0
    9.9340   -4.3766   -0.3052 H   0  0  0  0  0  0  0  0  0  0  0  0
   12.3205   -3.0698    2.0449 H   0  0  0  0  0  0  0  0  0  0  0  0
   13.6645   -1.4095    0.9918 H   0  0  0  0  0  0  0  0  0  0  0  0
   14.9473   -3.4560    1.5927 H   0  0  0  0  0  0  0  0  0  0  0  0
   15.8057   -3.3104    3.8566 H   0  0  0  0  0  0  0  0  0  0  0  0
   14.6475   -3.4251    5.2248 H   0  0  0  0  0  0  0  0  0  0  0  0
   15.9798   -5.5525    4.8278 H   0  0  0  0  0  0  0  0  0  0  0  0
   14.2004   -5.7796    4.7338 H   0  0  0  0  0  0  0  0  0  0  0  0
   16.1987   -5.6028    2.4320 H   0  0  0  0  0  0  0  0  0  0  0  0
   15.1766   -7.0022    2.9048 H   0  0  0  0  0  0  0  0  0  0  0  0
   14.4165   -5.6677    0.8633 H   0  0  0  0  0  0  0  0  0  0  0  0
   12.4055   -5.8019    3.1554 H   0  0  0  0  0  0  0  0  0  0  0  0
   11.7436   -7.5768    1.6122 H   0  0  0  0  0  0  0  0  0  0  0  0
   13.5652   -7.5931    0.0365 H   0  0  0  0  0  0  0  0  0  0  0  0
   13.6927  -10.0746   -0.0625 H   0  0  0  0  0  0  0  0  0  0  0  0
   12.0454  -10.2756    3.9021 H   0  0  0  0  0  0  0  0  0  0  0  0
   11.9157   -7.8233    3.9975 H   0  0  0  0  0  0  0  0  0  0  0  0
  1  2  1  0  0  0  0
  2  3  1  0  0  0  0
  2  4  1  0  0  0  0
  2  5  1  0  0  0  0
  5  6  1  0  0  0  0
  5 10  2  0  0  0  0
  6  7  2  0  0  0  0
  7  8  1  0  0  0  0
  8  9  1  0  0  0  0
  8 25  2  0  0  0  0
  9 10  1  0  0  0  0
  9 11  1  0  0  0  0
 11 12  1  0  0  0  0
 11 16  1  0  0  0  0
 12 13  1  0  0  0  0
 13 14  1  0  0  0  0
 14 15  1  0  0  0  0
 15 16  1  0  0  0  0
 16 17  1  0  0  0  0
 17 18  1  0  0  0  0
 17 25  1  0  0  0  0
 18 19  1  0  0  0  0
 18 24  1  0  0  0  0
 19 20  2  0  0  0  0
 20 21  1  0  0  0  0
 21 22  2  0  0  0  0
 21 23  1  0  0  0  0
 23 24  2  0  0  0  0
  1 26  1  0  0  0  0
  1 27  1  0  0  0  0
  1 28  1  0  0  0  0
  3 29  1  0  0  0  0
  3 30  1  0  0  0  0
  3 31  1  0  0  0  0
  4 32  1  0  0  0  0
  4 33  1  0  0  0  0
  4 34  1  0  0  0  0
  6 35  1  0  0  0  0
  7 36  1  0  0  0  0
  9 37  1  0  0  0  0
 10 38  1  0  0  0  0
 11 39  1  0  0  0  0
 13 40  1  0  0  0  0
 13 41  1  0  0  0  0
 14 42  1  0  0  0  0
 14 43  1  0  0  0  0
 15 44  1  0  0  0  0
 15 45  1  0  0  0  0
 16 46  1  0  0  0  0
 17 47  1  0  0  0  0
 18 48  1  0  0  0  0
 19 49  1  0  0  0  0
 20 50  1  0  0  0  0
 23 51  1  0  0  0  0
 24 52  1  0  0  0  0
M  END
> <ID>
CHEMBL1078691

> <IC50[nM]>
34

$$$$
CHEMBL1078691
  -OEChem-05192314313D
 Structure written by MMmdl.
 52 55  0     1  0  0  0  0  0999 V2000
   10.5284    0.3945   -0.7005 C   0  0  0  0  0  0  0  0  0  0  0  0
   11.9546   -0.1757   -0.7407 C   0  0  0  0  0  0  0  0  0  0  0  0
   12.4165   -0.1649   -2.1966 C   0  0  0  0  0  0  0  0  0  0  0  0
   12.8844    0.7521    0.0824 C   0  0  0  0  0  0  0  0  0  0  0  0
   11.8943   -1.5960   -0.1952 C   0  0  0  0  0  0  0  0  0  0  0  0
   10.8356   -2.4428   -0.5504 C   0  0  0  0  0  0  0  0  0  0  0  0
   10.7698   -3.7406   -0.0534 C   0  0  0  0  0  0  0  0  0  0  0  0
   11.7883   -4.2157    0.7713 C   0  0  0  0  0  0  0  0  0  0  0  0
   12.8596   -3.3846    1.1392 C   0  0  0  0  0  0  0  0  0  0  0  0
   12.8744   -2.0732    0.6730 C   0  0  0  0  0  0  0  0  0  0  0  0
   14.0135   -3.8879    1.9819 C   0  0  1  0  0  0  0  0  0  0  0  0
   13.8030   -3.4515    3.3286 O   0  0  0  0  0  0  0  0  0  0  0  0
   14.8803   -3.7868    4.2124 C   0  0  0  0  0  0  0  0  0  0  0  0
   15.0742   -5.3209    4.2479 C   0  0  0  0  0  0  0  0  0  0  0  0
   15.2231   -5.9051    2.8405 C   0  0  0  0  0  0  0  0  0  0  0  0
   14.1110   -5.4142    1.8892 C   0  0  1  0  0  0  0  0  0  0  0  0
   12.7111   -6.0630    2.1315 C   0  0  2  0  0  0  0  0  0  0  0  0
   12.7590   -7.5693    2.0352 C   0  0  0  0  0  0  0  0  0  0  0  0
   13.2481   -8.1881    0.8802 C   0  0  0  0  0  0  0  0  0  0  0  0
   13.3233   -9.5851    0.8265 C   0  0  0  0  0  0  0  0  0  0  0  0
   12.9107  -10.3576    1.9488 C   0  0  0  0  0  0  0  0  0  0  0  0
   12.9634  -11.6728    2.0898 O   0  0  0  0  0  0  0  0  0  0  0  0
   12.3943   -9.6942    3.0615 C   0  0  0  0  0  0  0  0  0  0  0  0
   12.3151   -8.3134    3.1219 C   0  0  0  0  0  0  0  0  0  0  0  0
   11.7105   -5.5421    1.2053 N   0  0  0  0  0  0  0  0  0  0  0  0
   10.1646    0.4007    0.3376 H   0  0  0  0  0  0  0  0  0  0  0  0
   10.5332    1.4219   -1.0934 H   0  0  0  0  0  0  0  0  0  0  0  0
    9.8661   -0.2308   -1.3173 H   0  0  0  0  0  0  0  0  0  0  0  0
   13.4378   -0.5684   -2.2608 H   0  0  0  0  0  0  0  0  0  0  0  0
   11.7385   -0.7855   -2.8009 H   0  0  0  0  0  0  0  0  0  0  0  0
   12.4056    0.8672   -2.5770 H   0  0  0  0  0  0  0  0  0  0  0  0
   13.9102    0.3554    0.0623 H   0  0  0  0  0  0  0  0  0  0  0  0
   12.8734    1.7621   -0.3533 H   0  0  0  0  0  0  0  0  0  0  0  0
   12.5293    0.7976    1.1225 H   0  0  0  0  0  0  0  0  0  0  0  0
   10.0640   -2.0847   -1.2158 H   0  0  0  0  0  0  0  0  0  0  0  0
    9.9340   -4.3766   -0.3052 H   0  0  0  0  0  0  0  0  0  0  0  0
   12.3205   -3.0698    2.0449 H   0  0  0  0  0  0  0  0  0  0  0  0
   13.6645   -1.4095    0.9918 H   0  0  0  0  0  0  0  0  0  0  0  0
   14.9473   -3.4560    1.5927 H   0  0  0  0  0  0  0  0  0  0  0  0
   15.8057   -3.3104    3.8566 H   0  0  0  0  0  0  0  0  0  0  0  0
   14.6475   -3.4251    5.2248 H   0  0  0  0  0  0  0  0  0  0  0  0
   15.9798   -5.5525    4.8278 H   0  0  0  0  0  0  0  0  0  0  0  0
   14.2004   -5.7796    4.7338 H   0  0  0  0  0  0  0  0  0  0  0  0
   16.1987   -5.6028    2.4320 H   0  0  0  0  0  0  0  0  0  0  0  0
   15.1766   -7.0022    2.9048 H   0  0  0  0  0  0  0  0  0  0  0  0
   14.4165   -5.6677    0.8633 H   0  0  0  0  0  0  0  0  0  0  0  0
   12.4055   -5.8019    3.1554 H   0  0  0  0  0  0  0  0  0  0  0  0
   13.5652   -7.5931    0.0365 H   0  0  0  0  0  0  0  0  0  0  0  0
   12.7055   -9.9052   -0.0255 H   0  0  0  0  0  0  0  0  0  0  0  0
   14.3756   -9.8406    0.6329 H   0  0  0  0  0  0  0  0  0  0  0  0
   12.0454  -10.2756    3.9021 H   0  0  0  0  0  0  0  0  0  0  0  0
   11.9157   -7.8233    3.9975 H   0  0  0  0  0  0  0  0  0  0  0  0
  1  2  1  0  0  0  0
  2  3  1  0  0  0  0
  2  4  1  0  0  0  0
  2  5  1  0  0  0  0
  5  6  1  0  0  0  0
  5 10  2  0  0  0  0
  6  7  2  0  0  0  0
  7  8  1  0  0  0  0
  8  9  1  0  0  0  0
  8 25  2  0  0  0  0
  9 10  1  0  0  0  0
  9 11  1  0  0  0  0
 11 12  1  0  0  0  0
 11 16  1  0  0  0  0
 12 13  1  0  0  0  0
 13 14  1  0  0  0  0
 14 15  1  0  0  0  0
 15 16  1  0  0  0  0
 16 17  1  0  0  0  0
 17 18  1  0  0  0  0
 17 25  1  0  0  0  0
 18 19  2  0  0  0  0
 18 24  1  0  0  0  0
 19 20  1  0  0  0  0
 20 21  1  0  0  0  0
 21 22  2  0  0  0  0
 21 23  1  0  0  0  0
 23 24  2  0  0  0  0
  1 26  1  0  0  0  0
  1 27  1  0  0  0  0
  1 28  1  0  0  0  0
  3 29  1  0  0  0  0
  3 30  1  0  0  0  0
  3 31  1  0  0  0  0
  4 32  1  0  0  0  0
  4 33  1  0  0  0  0
  4 34  1  0  0  0  0
  6 35  1  0  0  0  0
  7 36  1  0  0  0  0
  9 37  1  0  0  0  0
 10 38  1  0  0  0  0
 11 39  1  0  0  0  0
 13 40  1  0  0  0  0
 13 41  1  0  0  0  0
 14 42  1  0  0  0  0
 14 43  1  0  0  0  0
 15 44  1  0  0  0  0
 15 45  1  0  0  0  0
 16 46  1  0  0  0  0
 17 47  1  0  0  0  0
 19 48  1  0  0  0  0
 20 49  1  0  0  0  0
 20 50  1  0  0  0  0
 23 51  1  0  0  0  0
 24 52  1  0  0  0  0
M  END
> <ID>
CHEMBL1078691

> <IC50[nM]>
34

$$$$
CHEMBL1078691
  -OEChem-05192314313D
 Structure written by MMmdl.
 52 55  0     1  0  0  0  0  0999 V2000
   10.5284    0.3945   -0.7005 C   0  0  0  0  0  0  0  0  0  0  0  0
   11.9546   -0.1757   -0.7407 C   0  0  0  0  0  0  0  0  0  0  0  0
   12.4165   -0.1649   -2.1966 C   0  0  0  0  0  0  0  0  0  0  0  0
   12.8844    0.7521    0.0824 C   0  0  0  0  0  0  0  0  0  0  0  0
   11.8943   -1.5960   -0.1952 C   0  0  0  0  0  0  0  0  0  0  0  0
   10.8356   -2.4428   -0.5504 C   0  0  0  0  0  0  0  0  0  0  0  0
   10.7698   -3.7406   -0.0534 C   0  0  0  0  0  0  0  0  0  0  0  0
   11.7883   -4.2157    0.7713 C   0  0  0  0  0  0  0  0  0  0  0  0
   12.8596   -3.3846    1.1392 C   0  0  0  0  0  0  0  0  0  0  0  0
   12.8744   -2.0732    0.6730 C   0  0  0  0  0  0  0  0  0  0  0  0
   14.0135   -3.8879    1.9819 C   0  0  1  0  0  0  0  0  0  0  0  0
   13.8030   -3.4515    3.3286 O   0  0  0  0  0  0  0  0  0  0  0  0
   14.8803   -3.7868    4.2124 C   0  0  0  0  0  0  0  0  0  0  0  0
   15.0742   -5.3209    4.2479 C   0  0  0  0  0  0  0  0  0  0  0  0
   15.2231   -5.9051    2.8405 C   0  0  0  0  0  0  0  0  0  0  0  0
   14.1110   -5.4142    1.8892 C   0  0  1  0  0  0  0  0  0  0  0  0
   12.7111   -6.0630    2.1315 C   0  0  2  0  0  0  0  0  0  0  0  0
   12.7590   -7.5693    2.0352 C   0  0  0  0  0  0  0  0  0  0  0  0
   13.2481   -8.1881    0.8802 C   0  0  0  0  0  0  0  0  0  0  0  0
   13.3233   -9.5851    0.8265 C   0  0  0  0  0  0  0  0  0  0  0  0
   12.9107  -10.3576    1.9488 C   0  0  0  0  0  0  0  0  0  0  0  0
   12.9634  -11.6728    2.0898 O   0  0  0  0  0  0  0  0  0  0  0  0
   12.3943   -9.6942    3.0615 C   0  0  0  0  0  0  0  0  0  0  0  0
   12.3151   -8.3134    3.1219 C   0  0  0  0  0  0  0  0  0  0  0  0
   11.7105   -5.5421    1.2053 N   0  0  0  0  0  0  0  0  0  0  0  0
   10.1646    0.4007    0.3376 H   0  0  0  0  0  0  0  0  0  0  0  0
   10.5332    1.4219   -1.0934 H   0  0  0  0  0  0  0  0  0  0  0  0
    9.8661   -0.2308   -1.3173 H   0  0  0  0  0  0  0  0  0  0  0  0
   13.4378   -0.5684   -2.2608 H   0  0  0  0  0  0  0  0  0  0  0  0
   11.7385   -0.7855   -2.8009 H   0  0  0  0  0  0  0  0  0  0  0  0
   12.4056    0.8672   -2.5770 H   0  0  0  0  0  0  0  0  0  0  0  0
   13.9102    0.3554    0.0623 H   0  0  0  0  0  0  0  0  0  0  0  0
   12.8734    1.7621   -0.3533 H   0  0  0  0  0  0  0  0  0  0  0  0
   12.5293    0.7976    1.1225 H   0  0  0  0  0  0  0  0  0  0  0  0
   10.0640   -2.0847   -1.2158 H   0  0  0  0  0  0  0  0  0  0  0  0
    9.8338   -3.8159    0.5196 H   0  0  0  0  0  0  0  0  0  0  0  0
   10.7229   -4.4133   -0.9225 H   0  0  0  0  0  0  0  0  0  0  0  0
   13.6645   -1.4095    0.9918 H   0  0  0  0  0  0  0  0  0  0  0  0
   14.9473   -3.4560    1.5927 H   0  0  0  0  0  0  0  0  0  0  0  0
   15.8057   -3.3104    3.8566 H   0  0  0  0  0  0  0  0  0  0  0  0
   14.6475   -3.4251    5.2248 H   0  0  0  0  0  0  0  0  0  0  0  0
   15.9798   -5.5525    4.8278 H   0  0  0  0  0  0  0  0  0  0  0  0
   14.2004   -5.7796    4.7338 H   0  0  0  0  0  0  0  0  0  0  0  0
   16.1987   -5.6028    2.4320 H   0  0  0  0  0  0  0  0  0  0  0  0
   15.1766   -7.0022    2.9048 H   0  0  0  0  0  0  0  0  0  0  0  0
   14.4165   -5.6677    0.8633 H   0  0  0  0  0  0  0  0  0  0  0  0
   12.4055   -5.8019    3.1554 H   0  0  0  0  0  0  0  0  0  0  0  0
   11.7436   -7.5768    1.6122 H   0  0  0  0  0  0  0  0  0  0  0  0
   13.5652   -7.5931    0.0365 H   0  0  0  0  0  0  0  0  0  0  0  0
   13.6927  -10.0746   -0.0625 H   0  0  0  0  0  0  0  0  0  0  0  0
   12.0454  -10.2756    3.9021 H   0  0  0  0  0  0  0  0  0  0  0  0
   11.9157   -7.8233    3.9975 H   0  0  0  0  0  0  0  0  0  0  0  0
  1  2  1  0  0  0  0
  2  3  1  0  0  0  0
  2  4  1  0  0  0  0
  2  5  1  0  0  0  0
  5  6  2  0  0  0  0
  5 10  1  0  0  0  0
  6  7  1  0  0  0  0
  7  8  1  0  0  0  0
  8  9  1  0  0  0  0
  8 25  2  0  0  0  0
  9 10  2  0  0  0  0
  9 11  1  0  0  0  0
 11 12  1  0  0  0  0
 11 16  1  0  0  0  0
 12 13  1  0  0  0  0
 13 14  1  0  0  0  0
 14 15  1  0  0  0  0
 15 16  1  0  0  0  0
 16 17  1  0  0  0  0
 17 18  1  0  0  0  0
 17 25  1  0  0  0  0
 18 19  1  0  0  0  0
 18 24  1  0  0  0  0
 19 20  2  0  0  0  0
 20 21  1  0  0  0  0
 21 22  2  0  0  0  0
 21 23  1  0  0  0  0
 23 24  2  0  0  0  0
  1 26  1  0  0  0  0
  1 27  1  0  0  0  0
  1 28  1  0  0  0  0
  3 29  1  0  0  0  0
  3 30  1  0  0  0  0
  3 31  1  0  0  0  0
  4 32  1  0  0  0  0
  4 33  1  0  0  0  0
  4 34  1  0  0  0  0
  6 35  1  0  0  0  0
  7 36  1  0  0  0  0
  7 37  1  0  0  0  0
 10 38  1  0  0  0  0
 11 39  1  0  0  0  0
 13 40  1  0  0  0  0
 13 41  1  0  0  0  0
 14 42  1  0  0  0  0
 14 43  1  0  0  0  0
 15 44  1  0  0  0  0
 15 45  1  0  0  0  0
 16 46  1  0  0  0  0
 17 47  1  0  0  0  0
 18 48  1  0  0  0  0
 19 49  1  0  0  0  0
 20 50  1  0  0  0  0
 23 51  1  0  0  0  0
 24 52  1  0  0  0  0
M  END
> <ID>
CHEMBL1078691

> <IC50[nM]>
34

$$$$
CHEMBL1078691
  -OEChem-05192314313D
 Structure written by MMmdl.
 52 55  0     1  0  0  0  0  0999 V2000
   10.5284    0.3945   -0.7005 C   0  0  0  0  0  0  0  0  0  0  0  0
   11.9546   -0.1757   -0.7407 C   0  0  0  0  0  0  0  0  0  0  0  0
   12.4165   -0.1649   -2.1966 C   0  0  0  0  0  0  0  0  0  0  0  0
   12.8844    0.7521    0.0824 C   0  0  0  0  0  0  0  0  0  0  0  0
   11.8943   -1.5960   -0.1952 C   0  0  0  0  0  0  0  0  0  0  0  0
   10.8356   -2.4428   -0.5504 C   0  0  0  0  0  0  0  0  0  0  0  0
   10.7698   -3.7406   -0.0534 C   0  0  0  0  0  0  0  0  0  0  0  0
   11.7883   -4.2157    0.7713 C   0  0  0  0  0  0  0  0  0  0  0  0
   12.8596   -3.3846    1.1392 C   0  0  0  0  0  0  0  0  0  0  0  0
   12.8744   -2.0732    0.6730 C   0  0  0  0  0  0  0  0  0  0  0  0
   14.0135   -3.8879    1.9819 C   0  0  1  0  0  0  0  0  0  0  0  0
   13.8030   -3.4515    3.3286 O   0  0  0  0  0  0  0  0  0  0  0  0
   14.8803   -3.7868    4.2124 C   0  0  0  0  0  0  0  0  0  0  0  0
   15.0742   -5.3209    4.2479 C   0  0  0  0  0  0  0  0  0  0  0  0
   15.2231   -5.9051    2.8405 C   0  0  0  0  0  0  0  0  0  0  0  0
   14.1110   -5.4142    1.8892 C   0  0  1  0  0  0  0  0  0  0  0  0
   12.7111   -6.0630    2.1315 C   0  0  2  0  0  0  0  0  0  0  0  0
   12.7590   -7.5693    2.0352 C   0  0  0  0  0  0  0  0  0  0  0  0
   13.2481   -8.1881    0.8802 C   0  0  0  0  0  0  0  0  0  0  0  0
   13.3233   -9.5851    0.8265 C   0  0  0  0  0  0  0  0  0  0  0  0
   12.9107  -10.3576    1.9488 C   0  0  0  0  0  0  0  0  0  0  0  0
   12.9634  -11.6728    2.0898 O   0  0  0  0  0  0  0  0  0  0  0  0
   12.3943   -9.6942    3.0615 C   0  0  0  0  0  0  0  0  0  0  0  0
   12.3151   -8.3134    3.1219 C   0  0  0  0  0  0  0  0  0  0  0  0
   11.7105   -5.5421    1.2053 N   0  0  0  0  0  0  0  0  0  0  0  0
   10.1646    0.4007    0.3376 H   0  0  0  0  0  0  0  0  0  0  0  0
   10.5332    1.4219   -1.0934 H   0  0  0  0  0  0  0  0  0  0  0  0
    9.8661   -0.2308   -1.3173 H   0  0  0  0  0  0  0  0  0  0  0  0
   13.4378   -0.5684   -2.2608 H   0  0  0  0  0  0  0  0  0  0  0  0
   11.7385   -0.7855   -2.8009 H   0  0  0  0  0  0  0  0  0  0  0  0
   12.4056    0.8672   -2.5770 H   0  0  0  0  0  0  0  0  0  0  0  0
   13.9102    0.3554    0.0623 H   0  0  0  0  0  0  0  0  0  0  0  0
   12.8734    1.7621   -0.3533 H   0  0  0  0  0  0  0  0  0  0  0  0
   12.5293    0.7976    1.1225 H   0  0  0  0  0  0  0  0  0  0  0  0
   10.0640   -2.0847   -1.2158 H   0  0  0  0  0  0  0  0  0  0  0  0
    9.8338   -3.8159    0.5196 H   0  0  0  0  0  0  0  0  0  0  0  0
   10.7229   -4.4133   -0.9225 H   0  0  0  0  0  0  0  0  0  0  0  0
   13.6645   -1.4095    0.9918 H   0  0  0  0  0  0  0  0  0  0  0  0
   14.9473   -3.4560    1.5927 H   0  0  0  0  0  0  0  0  0  0  0  0
   15.8057   -3.3104    3.8566 H   0  0  0  0  0  0  0  0  0  0  0  0
   14.6475   -3.4251    5.2248 H   0  0  0  0  0  0  0  0  0  0  0  0
   15.9798   -5.5525    4.8278 H   0  0  0  0  0  0  0  0  0  0  0  0
   14.2004   -5.7796    4.7338 H   0  0  0  0  0  0  0  0  0  0  0  0
   16.1987   -5.6028    2.4320 H   0  0  0  0  0  0  0  0  0  0  0  0
   15.1766   -7.0022    2.9048 H   0  0  0  0  0  0  0  0  0  0  0  0
   14.4165   -5.6677    0.8633 H   0  0  0  0  0  0  0  0  0  0  0  0
   12.4055   -5.8019    3.1554 H   0  0  0  0  0  0  0  0  0  0  0  0
   13.5652   -7.5931    0.0365 H   0  0  0  0  0  0  0  0  0  0  0  0
   12.7055   -9.9052   -0.0255 H   0  0  0  0  0  0  0  0  0  0  0  0
   14.3756   -9.8406    0.6329 H   0  0  0  0  0  0  0  0  0  0  0  0
   12.0454  -10.2756    3.9021 H   0  0  0  0  0  0  0  0  0  0  0  0
   11.9157   -7.8233    3.9975 H   0  0  0  0  0  0  0  0  0  0  0  0
  1  2  1  0  0  0  0
  2  3  1  0  0  0  0
  2  4  1  0  0  0  0
  2  5  1  0  0  0  0
  5  6  2  0  0  0  0
  5 10  1  0  0  0  0
  6  7  1  0  0  0  0
  7  8  1  0  0  0  0
  8  9  1  0  0  0  0
  8 25  2  0  0  0  0
  9 10  2  0  0  0  0
  9 11  1  0  0  0  0
 11 12  1  0  0  0  0
 11 16  1  0  0  0  0
 12 13  1  0  0  0  0
 13 14  1  0  0  0  0
 14 15  1  0  0  0  0
 15 16  1  0  0  0  0
 16 17  1  0  0  0  0
 17 18  1  0  0  0  0
 17 25  1  0  0  0  0
 18 19  2  0  0  0  0
 18 24  1  0  0  0  0
 19 20  1  0  0  0  0
 20 21  1  0  0  0  0
 21 22  2  0  0  0  0
 21 23  1  0  0  0  0
 23 24  2  0  0  0  0
  1 26  1  0  0  0  0
  1 27  1  0  0  0  0
  1 28  1  0  0  0  0
  3 29  1  0  0  0  0
  3 30  1  0  0  0  0
  3 31  1  0  0  0  0
  4 32  1  0  0  0  0
  4 33  1  0  0  0  0
  4 34  1  0  0  0  0
  6 35  1  0  0  0  0
  7 36  1  0  0  0  0
  7 37  1  0  0  0  0
 10 38  1  0  0  0  0
 11 39  1  0  0  0  0
 13 40  1  0  0  0  0
 13 41  1  0  0  0  0
 14 42  1  0  0  0  0
 14 43  1  0  0  0  0
 15 44  1  0  0  0  0
 15 45  1  0  0  0  0
 16 46  1  0  0  0  0
 17 47  1  0  0  0  0
 19 48  1  0  0  0  0
 20 49  1  0  0  0  0
 20 50  1  0  0  0  0
 23 51  1  0  0  0  0
 24 52  1  0  0  0  0
M  END
> <ID>
CHEMBL1078691

> <IC50[nM]>
34

$$$$
