CHEMBL1084143
  -OEChem-05192314313D
 Structure written by MMmdl.
 73 76  0     1  0  0  0  0  0999 V2000
   11.3979   -0.1021   -2.1574 C   0  0  0  0  0  0  0  0  0  0  0  0
   11.9038   -0.1354   -0.7457 C   0  0  0  0  0  0  0  0  0  0  0  0
   11.0501    0.7757    0.0856 C   0  0  0  0  0  0  0  0  0  0  0  0
   11.8578   -1.5536   -0.1865 C   0  0  0  0  0  0  0  0  0  0  0  0
   10.8089   -2.4050   -0.5396 C   0  0  0  0  0  0  0  0  0  0  0  0
   10.7743   -3.7096   -0.0570 C   0  0  0  0  0  0  0  0  0  0  0  0
   11.7936   -4.1831    0.7614 C   0  0  0  0  0  0  0  0  0  0  0  0
   12.8662   -3.3440    1.1312 C   0  0  0  0  0  0  0  0  0  0  0  0
   12.8594   -2.0221    0.6688 C   0  0  0  0  0  0  0  0  0  0  0  0
   14.0156   -3.8719    1.9779 C   0  0  1  0  0  0  0  0  0  0  0  0
   13.8095   -3.4697    3.3345 O   0  0  0  0  0  0  0  0  0  0  0  0
   14.9090   -3.7899    4.1939 C   0  0  1  0  0  0  0  0  0  0  0  0
   14.7292   -3.0772    5.5493 C   0  0  0  0  0  0  0  0  0  0  0  0
   14.3931   -3.9357    6.7113 N   0  0  0  0  0  0  0  0  0  0  0  0
   15.6866   -4.1881    7.8512 S   0  0  0  0  0  0  0  0  0  0  0  0
   15.9605   -2.8994    8.4965 O   0  0  0  0  0  0  0  0  0  0  0  0
   16.7692   -4.9053    7.1723 O   0  0  0  0  0  0  0  0  0  0  0  0
   14.8572   -5.3740    9.0989 C   0  0  0  0  0  0  0  0  0  0  0  0
   15.9171   -5.9921   10.0050 C   0  0  0  0  0  0  0  0  0  0  0  0
   15.3040   -6.9172   11.0141 C   0  0  0  0  0  0  0  0  0  0  0  0
   16.3536   -7.4832   11.8564 N   0  0  0  0  0  0  0  0  0  0  0  0
   15.7569   -8.3836   12.8386 C   0  0  0  0  0  0  0  0  0  0  0  0
   17.2969   -8.2258   11.0254 C   0  0  0  0  0  0  0  0  0  0  0  0
   15.0802   -5.3264    4.2516 C   0  0  0  0  0  0  0  0  0  0  0  0
   15.2184   -5.9103    2.8356 C   0  0  0  0  0  0  0  0  0  0  0  0
   14.1038   -5.4145    1.8827 C   0  0  1  0  0  0  0  0  0  0  0  0
   12.7108   -6.0690    2.1214 C   0  0  2  0  0  0  0  0  0  0  0  0
   12.7593   -7.5926    2.0373 C   0  0  0  0  0  0  0  0  0  0  0  0
   13.2528   -8.2067    0.8813 C   0  0  0  0  0  0  0  0  0  0  0  0
   13.3297   -9.5928    0.7978 C   0  0  0  0  0  0  0  0  0  0  0  0
   12.9076  -10.3673    1.8725 C   0  0  0  0  0  0  0  0  0  0  0  0
   12.4034   -9.7655    3.0228 C   0  0  0  0  0  0  0  0  0  0  0  0
   12.3256   -8.3763    3.1078 C   0  0  0  0  0  0  0  0  0  0  0  0
   11.7374   -5.5233    1.1763 N   0  0  0  0  0  0  0  0  0  0  0  0
   12.0126   -0.7655   -2.7835 H   0  0  0  0  0  0  0  0  0  0  0  0
   10.3520   -0.4421   -2.1801 H   0  0  0  0  0  0  0  0  0  0  0  0
   11.4577    0.9260   -2.5440 H   0  0  0  0  0  0  0  0  0  0  0  0
   12.9437    0.2227   -0.7246 H   0  0  0  0  0  0  0  0  0  0  0  0
   11.4064    0.7646    1.1262 H   0  0  0  0  0  0  0  0  0  0  0  0
   11.1116    1.7995   -0.3120 H   0  0  0  0  0  0  0  0  0  0  0  0
   10.0059    0.4314    0.0520 H   0  0  0  0  0  0  0  0  0  0  0  0
   10.0224   -2.0500   -1.1890 H   0  0  0  0  0  0  0  0  0  0  0  0
    9.9513   -4.3578   -0.3195 H   0  0  0  0  0  0  0  0  0  0  0  0
   13.6453   -1.3498    0.9798 H   0  0  0  0  0  0  0  0  0  0  0  0
   14.9568   -3.4468    1.5992 H   0  0  0  0  0  0  0  0  0  0  0  0
   15.8264   -3.3856    3.7413 H   0  0  0  0  0  0  0  0  0  0  0  0
   15.6703   -2.5566    5.7801 H   0  0  0  0  0  0  0  0  0  0  0  0
   13.9210   -2.3400    5.4341 H   0  0  0  0  0  0  0  0  0  0  0  0
   13.6305   -3.5106    7.1989 H   0  0  0  0  0  0  0  0  0  0  0  0
   14.1349   -4.8138    9.7108 H   0  0  0  0  0  0  0  0  0  0  0  0
   14.3335   -6.1719    8.5520 H   0  0  0  0  0  0  0  0  0  0  0  0
   16.6298   -6.5582    9.3873 H   0  0  0  0  0  0  0  0  0  0  0  0
   16.4488   -5.1875   10.5340 H   0  0  0  0  0  0  0  0  0  0  0  0
   14.5933   -6.3578   11.6401 H   0  0  0  0  0  0  0  0  0  0  0  0
   14.7743   -7.7286   10.4935 H   0  0  0  0  0  0  0  0  0  0  0  0
   16.5474   -8.8103   13.4735 H   0  0  0  0  0  0  0  0  0  0  0  0
   15.0461   -7.8241   13.4645 H   0  0  0  0  0  0  0  0  0  0  0  0
   15.2271   -9.1949   12.3179 H   0  0  0  0  0  0  0  0  0  0  0  0
   18.0880   -8.6525   11.6595 H   0  0  0  0  0  0  0  0  0  0  0  0
   16.7670   -9.0371   10.5048 H   0  0  0  0  0  0  0  0  0  0  0  0
   17.7464   -7.5474   10.2854 H   0  0  0  0  0  0  0  0  0  0  0  0
   15.9831   -5.5678    4.8317 H   0  0  0  0  0  0  0  0  0  0  0  0
   14.2005   -5.7698    4.7410 H   0  0  0  0  0  0  0  0  0  0  0  0
   16.1939   -5.6121    2.4239 H   0  0  0  0  0  0  0  0  0  0  0  0
   15.1671   -7.0073    2.8990 H   0  0  0  0  0  0  0  0  0  0  0  0
   14.4118   -5.6644    0.8567 H   0  0  0  0  0  0  0  0  0  0  0  0
   12.3943   -5.8013    3.1403 H   0  0  0  0  0  0  0  0  0  0  0  0
   13.5762   -7.6004    0.0481 H   0  0  0  0  0  0  0  0  0  0  0  0
   13.7142  -10.0638   -0.0948 H   0  0  0  0  0  0  0  0  0  0  0  0
   12.9712  -11.4439    1.8148 H   0  0  0  0  0  0  0  0  0  0  0  0
   12.0723  -10.3759    3.8500 H   0  0  0  0  0  0  0  0  0  0  0  0
   11.9315   -7.9085    3.9979 H   0  0  0  0  0  0  0  0  0  0  0  0
   10.8369   -5.6532    1.5913 H   0  0  0  0  0  0  0  0  0  0  0  0
  1  2  1  0  0  0  0
  2  3  1  0  0  0  0
  2  4  1  0  0  0  0
  4  5  2  0  0  0  0
  4  9  1  0  0  0  0
  5  6  1  0  0  0  0
  6  7  2  0  0  0  0
  7  8  1  0  0  0  0
  7 34  1  0  0  0  0
  8  9  2  0  0  0  0
  8 10  1  0  0  0  0
 10 11  1  0  0  0  0
 10 26  1  0  0  0  0
 11 12  1  0  0  0  0
 12 13  1  0  0  0  0
 12 24  1  0  0  0  0
 13 14  1  0  0  0  0
 14 15  1  0  0  0  0
 15 16  2  0  0  0  0
 15 17  2  0  0  0  0
 15 18  1  0  0  0  0
 18 19  1  0  0  0  0
 19 20  1  0  0  0  0
 20 21  1  0  0  0  0
 21 22  1  0  0  0  0
 21 23  1  0  0  0  0
 24 25  1  0  0  0  0
 25 26  1  0  0  0  0
 26 27  1  0  0  0  0
 27 28  1  0  0  0  0
 27 34  1  0  0  0  0
 28 29  2  0  0  0  0
 28 33  1  0  0  0  0
 29 30  1  0  0  0  0
 30 31  2  0  0  0  0
 31 32  1  0  0  0  0
 32 33  2  0  0  0  0
  1 35  1  0  0  0  0
  1 36  1  0  0  0  0
  1 37  1  0  0  0  0
  2 38  1  0  0  0  0
  3 39  1  0  0  0  0
  3 40  1  0  0  0  0
  3 41  1  0  0  0  0
  5 42  1  0  0  0  0
  6 43  1  0  0  0  0
  9 44  1  0  0  0  0
 10 45  1  0  0  0  0
 12 46  1  0  0  0  0
 13 47  1  0  0  0  0
 13 48  1  0  0  0  0
 14 49  1  0  0  0  0
 18 50  1  0  0  0  0
 18 51  1  0  0  0  0
 19 52  1  0  0  0  0
 19 53  1  0  0  0  0
 20 54  1  0  0  0  0
 20 55  1  0  0  0  0
 22 56  1  0  0  0  0
 22 57  1  0  0  0  0
 22 58  1  0  0  0  0
 23 59  1  0  0  0  0
 23 60  1  0  0  0  0
 23 61  1  0  0  0  0
 24 62  1  0  0  0  0
 24 63  1  0  0  0  0
 25 64  1  0  0  0  0
 25 65  1  0  0  0  0
 26 66  1  0  0  0  0
 27 67  1  0  0  0  0
 29 68  1  0  0  0  0
 30 69  1  0  0  0  0
 31 70  1  0  0  0  0
 32 71  1  0  0  0  0
 33 72  1  0  0  0  0
 34 73  1  0  0  0  0
M  END
> <ID>
CHEMBL1084143

> <IC50[nM]>
2

$$$$
CHEMBL1084143
  -OEChem-05192314313D
 Structure written by MMmdl.
 73 76  0     1  0  0  0  0  0999 V2000
   11.3979   -0.1021   -2.1574 C   0  0  0  0  0  0  0  0  0  0  0  0
   11.9038   -0.1354   -0.7457 C   0  0  0  0  0  0  0  0  0  0  0  0
   11.0501    0.7757    0.0856 C   0  0  0  0  0  0  0  0  0  0  0  0
   11.8578   -1.5536   -0.1865 C   0  0  0  0  0  0  0  0  0  0  0  0
   10.8089   -2.4050   -0.5396 C   0  0  0  0  0  0  0  0  0  0  0  0
   10.7743   -3.7096   -0.0570 C   0  0  0  0  0  0  0  0  0  0  0  0
   11.7936   -4.1831    0.7614 C   0  0  0  0  0  0  0  0  0  0  0  0
   12.8662   -3.3440    1.1312 C   0  0  0  0  0  0  0  0  0  0  0  0
   12.8594   -2.0221    0.6688 C   0  0  0  0  0  0  0  0  0  0  0  0
   14.0156   -3.8719    1.9779 C   0  0  1  0  0  0  0  0  0  0  0  0
   13.8095   -3.4697    3.3345 O   0  0  0  0  0  0  0  0  0  0  0  0
   14.9090   -3.7899    4.1939 C   0  0  1  0  0  0  0  0  0  0  0  0
   14.7292   -3.0772    5.5493 C   0  0  0  0  0  0  0  0  0  0  0  0
   14.3931   -3.9357    6.7113 N   0  0  0  0  0  0  0  0  0  0  0  0
   15.6866   -4.1881    7.8512 S   0  0  0  0  0  0  0  0  0  0  0  0
   15.9605   -2.8994    8.4965 O   0  0  0  0  0  0  0  0  0  0  0  0
   16.7692   -4.9053    7.1723 O   0  0  0  0  0  0  0  0  0  0  0  0
   14.8572   -5.3740    9.0989 C   0  0  0  0  0  0  0  0  0  0  0  0
   15.9171   -5.9921   10.0050 C   0  0  0  0  0  0  0  0  0  0  0  0
   15.3040   -6.9172   11.0141 C   0  0  0  0  0  0  0  0  0  0  0  0
   16.3536   -7.4832   11.8564 N   0  0  0  0  0  0  0  0  0  0  0  0
   15.7569   -8.3836   12.8386 C   0  0  0  0  0  0  0  0  0  0  0  0
   17.2969   -8.2258   11.0254 C   0  0  0  0  0  0  0  0  0  0  0  0
   15.0802   -5.3264    4.2516 C   0  0  0  0  0  0  0  0  0  0  0  0
   15.2184   -5.9103    2.8356 C   0  0  0  0  0  0  0  0  0  0  0  0
   14.1038   -5.4145    1.8827 C   0  0  1  0  0  0  0  0  0  0  0  0
   12.7108   -6.0690    2.1214 C   0  0  2  0  0  0  0  0  0  0  0  0
   12.7593   -7.5926    2.0373 C   0  0  0  0  0  0  0  0  0  0  0  0
   13.2528   -8.2067    0.8813 C   0  0  0  0  0  0  0  0  0  0  0  0
   13.3297   -9.5928    0.7978 C   0  0  0  0  0  0  0  0  0  0  0  0
   12.9076  -10.3673    1.8725 C   0  0  0  0  0  0  0  0  0  0  0  0
   12.4034   -9.7655    3.0228 C   0  0  0  0  0  0  0  0  0  0  0  0
   12.3256   -8.3763    3.1078 C   0  0  0  0  0  0  0  0  0  0  0  0
   11.7374   -5.5233    1.1763 N   0  0  0  0  0  0  0  0  0  0  0  0
   12.0126   -0.7655   -2.7835 H   0  0  0  0  0  0  0  0  0  0  0  0
   10.3520   -0.4421   -2.1801 H   0  0  0  0  0  0  0  0  0  0  0  0
   11.4577    0.9260   -2.5440 H   0  0  0  0  0  0  0  0  0  0  0  0
   12.9437    0.2227   -0.7246 H   0  0  0  0  0  0  0  0  0  0  0  0
   11.4064    0.7646    1.1262 H   0  0  0  0  0  0  0  0  0  0  0  0
   11.1116    1.7995   -0.3120 H   0  0  0  0  0  0  0  0  0  0  0  0
   10.0059    0.4314    0.0520 H   0  0  0  0  0  0  0  0  0  0  0  0
   11.2809   -1.1966    0.6794 H   0  0  0  0  0  0  0  0  0  0  0  0
   10.0224   -2.0500   -1.1890 H   0  0  0  0  0  0  0  0  0  0  0  0
    9.9513   -4.3578   -0.3195 H   0  0  0  0  0  0  0  0  0  0  0  0
   13.6453   -1.3498    0.9798 H   0  0  0  0  0  0  0  0  0  0  0  0
   14.9568   -3.4468    1.5992 H   0  0  0  0  0  0  0  0  0  0  0  0
   15.8264   -3.3856    3.7413 H   0  0  0  0  0  0  0  0  0  0  0  0
   15.6703   -2.5566    5.7801 H   0  0  0  0  0  0  0  0  0  0  0  0
   13.9210   -2.3400    5.4341 H   0  0  0  0  0  0  0  0  0  0  0  0
   13.6305   -3.5106    7.1989 H   0  0  0  0  0  0  0  0  0  0  0  0
   14.1349   -4.8138    9.7108 H   0  0  0  0  0  0  0  0  0  0  0  0
   14.3335   -6.1719    8.5520 H   0  0  0  0  0  0  0  0  0  0  0  0
   16.6298   -6.5582    9.3873 H   0  0  0  0  0  0  0  0  0  0  0  0
   16.4488   -5.1875   10.5340 H   0  0  0  0  0  0  0  0  0  0  0  0
   14.5933   -6.3578   11.6401 H   0  0  0  0  0  0  0  0  0  0  0  0
   14.7743   -7.7286   10.4935 H   0  0  0  0  0  0  0  0  0  0  0  0
   16.5474   -8.8103   13.4735 H   0  0  0  0  0  0  0  0  0  0  0  0
   15.0461   -7.8241   13.4645 H   0  0  0  0  0  0  0  0  0  0  0  0
   15.2271   -9.1949   12.3179 H   0  0  0  0  0  0  0  0  0  0  0  0
   18.0880   -8.6525   11.6595 H   0  0  0  0  0  0  0  0  0  0  0  0
   16.7670   -9.0371   10.5048 H   0  0  0  0  0  0  0  0  0  0  0  0
   17.7464   -7.5474   10.2854 H   0  0  0  0  0  0  0  0  0  0  0  0
   15.9831   -5.5678    4.8317 H   0  0  0  0  0  0  0  0  0  0  0  0
   14.2005   -5.7698    4.7410 H   0  0  0  0  0  0  0  0  0  0  0  0
   16.1939   -5.6121    2.4239 H   0  0  0  0  0  0  0  0  0  0  0  0
   15.1671   -7.0073    2.8990 H   0  0  0  0  0  0  0  0  0  0  0  0
   14.4118   -5.6644    0.8567 H   0  0  0  0  0  0  0  0  0  0  0  0
   12.3943   -5.8013    3.1403 H   0  0  0  0  0  0  0  0  0  0  0  0
   13.5762   -7.6004    0.0481 H   0  0  0  0  0  0  0  0  0  0  0  0
   13.7142  -10.0638   -0.0948 H   0  0  0  0  0  0  0  0  0  0  0  0
   12.9712  -11.4439    1.8148 H   0  0  0  0  0  0  0  0  0  0  0  0
   12.0723  -10.3759    3.8500 H   0  0  0  0  0  0  0  0  0  0  0  0
   11.9315   -7.9085    3.9979 H   0  0  0  0  0  0  0  0  0  0  0  0
  1  2  1  0  0  0  0
  2  3  1  0  0  0  0
  2  4  1  0  0  0  0
  4  5  1  0  0  0  0
  4  9  1  0  0  0  0
  5  6  2  0  0  0  0
  6  7  1  0  0  0  0
  7  8  1  0  0  0  0
  7 34  2  0  0  0  0
  8  9  2  0  0  0  0
  8 10  1  0  0  0  0
 10 11  1  0  0  0  0
 10 26  1  0  0  0  0
 11 12  1  0  0  0  0
 12 13  1  0  0  0  0
 12 24  1  0  0  0  0
 13 14  1  0  0  0  0
 14 15  1  0  0  0  0
 15 16  2  0  0  0  0
 15 17  2  0  0  0  0
 15 18  1  0  0  0  0
 18 19  1  0  0  0  0
 19 20  1  0  0  0  0
 20 21  1  0  0  0  0
 21 22  1  0  0  0  0
 21 23  1  0  0  0  0
 24 25  1  0  0  0  0
 25 26  1  0  0  0  0
 26 27  1  0  0  0  0
 27 28  1  0  0  0  0
 27 34  1  0  0  0  0
 28 29  2  0  0  0  0
 28 33  1  0  0  0  0
 29 30  1  0  0  0  0
 30 31  2  0  0  0  0
 31 32  1  0  0  0  0
 32 33  2  0  0  0  0
  1 35  1  0  0  0  0
  1 36  1  0  0  0  0
  1 37  1  0  0  0  0
  2 38  1  0  0  0  0
  3 39  1  0  0  0  0
  3 40  1  0  0  0  0
  3 41  1  0  0  0  0
  4 42  1  0  0  0  0
  5 43  1  0  0  0  0
  6 44  1  0  0  0  0
  9 45  1  0  0  0  0
 10 46  1  0  0  0  0
 12 47  1  0  0  0  0
 13 48  1  0  0  0  0
 13 49  1  0  0  0  0
 14 50  1  0  0  0  0
 18 51  1  0  0  0  0
 18 52  1  0  0  0  0
 19 53  1  0  0  0  0
 19 54  1  0  0  0  0
 20 55  1  0  0  0  0
 20 56  1  0  0  0  0
 22 57  1  0  0  0  0
 22 58  1  0  0  0  0
 22 59  1  0  0  0  0
 23 60  1  0  0  0  0
 23 61  1  0  0  0  0
 23 62  1  0  0  0  0
 24 63  1  0  0  0  0
 24 64  1  0  0  0  0
 25 65  1  0  0  0  0
 25 66  1  0  0  0  0
 26 67  1  0  0  0  0
 27 68  1  0  0  0  0
 29 69  1  0  0  0  0
 30 70  1  0  0  0  0
 31 71  1  0  0  0  0
 32 72  1  0  0  0  0
 33 73  1  0  0  0  0
M  END
> <ID>
CHEMBL1084143

> <IC50[nM]>
2

$$$$
CHEMBL1084143
  -OEChem-05192314313D
 Structure written by MMmdl.
 73 76  0     1  0  0  0  0  0999 V2000
   11.3979   -0.1021   -2.1574 C   0  0  0  0  0  0  0  0  0  0  0  0
   11.9038   -0.1354   -0.7457 C   0  0  0  0  0  0  0  0  0  0  0  0
   11.0501    0.7757    0.0856 C   0  0  0  0  0  0  0  0  0  0  0  0
   11.8578   -1.5536   -0.1865 C   0  0  0  0  0  0  0  0  0  0  0  0
   10.8089   -2.4050   -0.5396 C   0  0  0  0  0  0  0  0  0  0  0  0
   10.7743   -3.7096   -0.0570 C   0  0  0  0  0  0  0  0  0  0  0  0
   11.7936   -4.1831    0.7614 C   0  0  0  0  0  0  0  0  0  0  0  0
   12.8662   -3.3440    1.1312 C   0  0  0  0  0  0  0  0  0  0  0  0
   12.8594   -2.0221    0.6688 C   0  0  0  0  0  0  0  0  0  0  0  0
   14.0156   -3.8719    1.9779 C   0  0  1  0  0  0  0  0  0  0  0  0
   13.8095   -3.4697    3.3345 O   0  0  0  0  0  0  0  0  0  0  0  0
   14.9090   -3.7899    4.1939 C   0  0  1  0  0  0  0  0  0  0  0  0
   14.7292   -3.0772    5.5493 C   0  0  0  0  0  0  0  0  0  0  0  0
   14.3931   -3.9357    6.7113 N   0  0  0  0  0  0  0  0  0  0  0  0
   15.6866   -4.1881    7.8512 S   0  0  0  0  0  0  0  0  0  0  0  0
   15.9605   -2.8994    8.4965 O   0  0  0  0  0  0  0  0  0  0  0  0
   16.7692   -4.9053    7.1723 O   0  0  0  0  0  0  0  0  0  0  0  0
   14.8572   -5.3740    9.0989 C   0  0  0  0  0  0  0  0  0  0  0  0
   15.9171   -5.9921   10.0050 C   0  0  0  0  0  0  0  0  0  0  0  0
   15.3040   -6.9172   11.0141 C   0  0  0  0  0  0  0  0  0  0  0  0
   16.3536   -7.4832   11.8564 N   0  0  0  0  0  0  0  0  0  0  0  0
   15.7569   -8.3836   12.8386 C   0  0  0  0  0  0  0  0  0  0  0  0
   17.2969   -8.2258   11.0254 C   0  0  0  0  0  0  0  0  0  0  0  0
   15.0802   -5.3264    4.2516 C   0  0  0  0  0  0  0  0  0  0  0  0
   15.2184   -5.9103    2.8356 C   0  0  0  0  0  0  0  0  0  0  0  0
   14.1038   -5.4145    1.8827 C   0  0  1  0  0  0  0  0  0  0  0  0
   12.7108   -6.0690    2.1214 C   0  0  2  0  0  0  0  0  0  0  0  0
   12.7593   -7.5926    2.0373 C   0  0  0  0  0  0  0  0  0  0  0  0
   13.2528   -8.2067    0.8813 C   0  0  0  0  0  0  0  0  0  0  0  0
   13.3297   -9.5928    0.7978 C   0  0  0  0  0  0  0  0  0  0  0  0
   12.9076  -10.3673    1.8725 C   0  0  0  0  0  0  0  0  0  0  0  0
   12.4034   -9.7655    3.0228 C   0  0  0  0  0  0  0  0  0  0  0  0
   12.3256   -8.3763    3.1078 C   0  0  0  0  0  0  0  0  0  0  0  0
   11.7374   -5.5233    1.1763 N   0  0  0  0  0  0  0  0  0  0  0  0
   12.0126   -0.7655   -2.7835 H   0  0  0  0  0  0  0  0  0  0  0  0
   10.3520   -0.4421   -2.1801 H   0  0  0  0  0  0  0  0  0  0  0  0
   11.4577    0.9260   -2.5440 H   0  0  0  0  0  0  0  0  0  0  0  0
   12.9437    0.2227   -0.7246 H   0  0  0  0  0  0  0  0  0  0  0  0
   11.4064    0.7646    1.1262 H   0  0  0  0  0  0  0  0  0  0  0  0
   11.1116    1.7995   -0.3120 H   0  0  0  0  0  0  0  0  0  0  0  0
   10.0059    0.4314    0.0520 H   0  0  0  0  0  0  0  0  0  0  0  0
   10.0224   -2.0500   -1.1890 H   0  0  0  0  0  0  0  0  0  0  0  0
    9.9513   -4.3578   -0.3195 H   0  0  0  0  0  0  0  0  0  0  0  0
   12.3261   -3.0387    2.0396 H   0  0  0  0  0  0  0  0  0  0  0  0
   13.6453   -1.3498    0.9798 H   0  0  0  0  0  0  0  0  0  0  0  0
   14.9568   -3.4468    1.5992 H   0  0  0  0  0  0  0  0  0  0  0  0
   15.8264   -3.3856    3.7413 H   0  0  0  0  0  0  0  0  0  0  0  0
   15.6703   -2.5566    5.7801 H   0  0  0  0  0  0  0  0  0  0  0  0
   13.9210   -2.3400    5.4341 H   0  0  0  0  0  0  0  0  0  0  0  0
   13.6305   -3.5106    7.1989 H   0  0  0  0  0  0  0  0  0  0  0  0
   14.1349   -4.8138    9.7108 H   0  0  0  0  0  0  0  0  0  0  0  0
   14.3335   -6.1719    8.5520 H   0  0  0  0  0  0  0  0  0  0  0  0
   16.6298   -6.5582    9.3873 H   0  0  0  0  0  0  0  0  0  0  0  0
   16.4488   -5.1875   10.5340 H   0  0  0  0  0  0  0  0  0  0  0  0
   14.5933   -6.3578   11.6401 H   0  0  0  0  0  0  0  0  0  0  0  0
   14.7743   -7.7286   10.4935 H   0  0  0  0  0  0  0  0  0  0  0  0
   16.5474   -8.8103   13.4735 H   0  0  0  0  0  0  0  0  0  0  0  0
   15.0461   -7.8241   13.4645 H   0  0  0  0  0  0  0  0  0  0  0  0
   15.2271   -9.1949   12.3179 H   0  0  0  0  0  0  0  0  0  0  0  0
   18.0880   -8.6525   11.6595 H   0  0  0  0  0  0  0  0  0  0  0  0
   16.7670   -9.0371   10.5048 H   0  0  0  0  0  0  0  0  0  0  0  0
   17.7464   -7.5474   10.2854 H   0  0  0  0  0  0  0  0  0  0  0  0
   15.9831   -5.5678    4.8317 H   0  0  0  0  0  0  0  0  0  0  0  0
   14.2005   -5.7698    4.7410 H   0  0  0  0  0  0  0  0  0  0  0  0
   16.1939   -5.6121    2.4239 H   0  0  0  0  0  0  0  0  0  0  0  0
   15.1671   -7.0073    2.8990 H   0  0  0  0  0  0  0  0  0  0  0  0
   14.4118   -5.6644    0.8567 H   0  0  0  0  0  0  0  0  0  0  0  0
   12.3943   -5.8013    3.1403 H   0  0  0  0  0  0  0  0  0  0  0  0
   13.5762   -7.6004    0.0481 H   0  0  0  0  0  0  0  0  0  0  0  0
   13.7142  -10.0638   -0.0948 H   0  0  0  0  0  0  0  0  0  0  0  0
   12.9712  -11.4439    1.8148 H   0  0  0  0  0  0  0  0  0  0  0  0
   12.0723  -10.3759    3.8500 H   0  0  0  0  0  0  0  0  0  0  0  0
   11.9315   -7.9085    3.9979 H   0  0  0  0  0  0  0  0  0  0  0  0
  1  2  1  0  0  0  0
  2  3  1  0  0  0  0
  2  4  1  0  0  0  0
  4  5  1  0  0  0  0
  4  9  2  0  0  0  0
  5  6  2  0  0  0  0
  6  7  1  0  0  0  0
  7  8  1  0  0  0  0
  7 34  2  0  0  0  0
  8  9  1  0  0  0  0
  8 10  1  0  0  0  0
 10 11  1  0  0  0  0
 10 26  1  0  0  0  0
 11 12  1  0  0  0  0
 12 13  1  0  0  0  0
 12 24  1  0  0  0  0
 13 14  1  0  0  0  0
 14 15  1  0  0  0  0
 15 16  2  0  0  0  0
 15 17  2  0  0  0  0
 15 18  1  0  0  0  0
 18 19  1  0  0  0  0
 19 20  1  0  0  0  0
 20 21  1  0  0  0  0
 21 22  1  0  0  0  0
 21 23  1  0  0  0  0
 24 25  1  0  0  0  0
 25 26  1  0  0  0  0
 26 27  1  0  0  0  0
 27 28  1  0  0  0  0
 27 34  1  0  0  0  0
 28 29  2  0  0  0  0
 28 33  1  0  0  0  0
 29 30  1  0  0  0  0
 30 31  2  0  0  0  0
 31 32  1  0  0  0  0
 32 33  2  0  0  0  0
  1 35  1  0  0  0  0
  1 36  1  0  0  0  0
  1 37  1  0  0  0  0
  2 38  1  0  0  0  0
  3 39  1  0  0  0  0
  3 40  1  0  0  0  0
  3 41  1  0  0  0  0
  5 42  1  0  0  0  0
  6 43  1  0  0  0  0
  8 44  1  0  0  0  0
  9 45  1  0  0  0  0
 10 46  1  0  0  0  0
 12 47  1  0  0  0  0
 13 48  1  0  0  0  0
 13 49  1  0  0  0  0
 14 50  1  0  0  0  0
 18 51  1  0  0  0  0
 18 52  1  0  0  0  0
 19 53  1  0  0  0  0
 19 54  1  0  0  0  0
 20 55  1  0  0  0  0
 20 56  1  0  0  0  0
 22 57  1  0  0  0  0
 22 58  1  0  0  0  0
 22 59  1  0  0  0  0
 23 60  1  0  0  0  0
 23 61  1  0  0  0  0
 23 62  1  0  0  0  0
 24 63  1  0  0  0  0
 24 64  1  0  0  0  0
 25 65  1  0  0  0  0
 25 66  1  0  0  0  0
 26 67  1  0  0  0  0
 27 68  1  0  0  0  0
 29 69  1  0  0  0  0
 30 70  1  0  0  0  0
 31 71  1  0  0  0  0
 32 72  1  0  0  0  0
 33 73  1  0  0  0  0
M  END
> <ID>
CHEMBL1084143

> <IC50[nM]>
2

$$$$
CHEMBL1084143
  -OEChem-05192314313D
 Structure written by MMmdl.
 73 76  0     1  0  0  0  0  0999 V2000
   11.3979   -0.1021   -2.1574 C   0  0  0  0  0  0  0  0  0  0  0  0
   11.9038   -0.1354   -0.7457 C   0  0  0  0  0  0  0  0  0  0  0  0
   11.0501    0.7757    0.0856 C   0  0  0  0  0  0  0  0  0  0  0  0
   11.8578   -1.5536   -0.1865 C   0  0  0  0  0  0  0  0  0  0  0  0
   10.8089   -2.4050   -0.5396 C   0  0  0  0  0  0  0  0  0  0  0  0
   10.7743   -3.7096   -0.0570 C   0  0  0  0  0  0  0  0  0  0  0  0
   11.7936   -4.1831    0.7614 C   0  0  0  0  0  0  0  0  0  0  0  0
   12.8662   -3.3440    1.1312 C   0  0  0  0  0  0  0  0  0  0  0  0
   12.8594   -2.0221    0.6688 C   0  0  0  0  0  0  0  0  0  0  0  0
   14.0156   -3.8719    1.9779 C   0  0  1  0  0  0  0  0  0  0  0  0
   13.8095   -3.4697    3.3345 O   0  0  0  0  0  0  0  0  0  0  0  0
   14.9090   -3.7899    4.1939 C   0  0  1  0  0  0  0  0  0  0  0  0
   14.7292   -3.0772    5.5493 C   0  0  0  0  0  0  0  0  0  0  0  0
   14.3931   -3.9357    6.7113 N   0  0  0  0  0  0  0  0  0  0  0  0
   15.6866   -4.1881    7.8512 S   0  0  0  0  0  0  0  0  0  0  0  0
   15.9605   -2.8994    8.4965 O   0  0  0  0  0  0  0  0  0  0  0  0
   16.7692   -4.9053    7.1723 O   0  0  0  0  0  0  0  0  0  0  0  0
   14.8572   -5.3740    9.0989 C   0  0  0  0  0  0  0  0  0  0  0  0
   15.9171   -5.9921   10.0050 C   0  0  0  0  0  0  0  0  0  0  0  0
   15.3040   -6.9172   11.0141 C   0  0  0  0  0  0  0  0  0  0  0  0
   16.3536   -7.4832   11.8564 N   0  0  0  0  0  0  0  0  0  0  0  0
   15.7569   -8.3836   12.8386 C   0  0  0  0  0  0  0  0  0  0  0  0
   17.2969   -8.2258   11.0254 C   0  0  0  0  0  0  0  0  0  0  0  0
   15.0802   -5.3264    4.2516 C   0  0  0  0  0  0  0  0  0  0  0  0
   15.2184   -5.9103    2.8356 C   0  0  0  0  0  0  0  0  0  0  0  0
   14.1038   -5.4145    1.8827 C   0  0  1  0  0  0  0  0  0  0  0  0
   12.7108   -6.0690    2.1214 C   0  0  2  0  0  0  0  0  0  0  0  0
   12.7593   -7.5926    2.0373 C   0  0  0  0  0  0  0  0  0  0  0  0
   13.2528   -8.2067    0.8813 C   0  0  0  0  0  0  0  0  0  0  0  0
   13.3297   -9.5928    0.7978 C   0  0  0  0  0  0  0  0  0  0  0  0
   12.9076  -10.3673    1.8725 C   0  0  0  0  0  0  0  0  0  0  0  0
   12.4034   -9.7655    3.0228 C   0  0  0  0  0  0  0  0  0  0  0  0
   12.3256   -8.3763    3.1078 C   0  0  0  0  0  0  0  0  0  0  0  0
   11.7374   -5.5233    1.1763 N   0  0  0  0  0  0  0  0  0  0  0  0
   12.0126   -0.7655   -2.7835 H   0  0  0  0  0  0  0  0  0  0  0  0
   10.3520   -0.4421   -2.1801 H   0  0  0  0  0  0  0  0  0  0  0  0
   11.4577    0.9260   -2.5440 H   0  0  0  0  0  0  0  0  0  0  0  0
   12.9437    0.2227   -0.7246 H   0  0  0  0  0  0  0  0  0  0  0  0
   11.4064    0.7646    1.1262 H   0  0  0  0  0  0  0  0  0  0  0  0
   11.1116    1.7995   -0.3120 H   0  0  0  0  0  0  0  0  0  0  0  0
   10.0059    0.4314    0.0520 H   0  0  0  0  0  0  0  0  0  0  0  0
   10.0224   -2.0500   -1.1890 H   0  0  0  0  0  0  0  0  0  0  0  0
    9.8389   -3.8109    0.5128 H   0  0  0  0  0  0  0  0  0  0  0  0
   10.7418   -4.3706   -0.9356 H   0  0  0  0  0  0  0  0  0  0  0  0
   13.6453   -1.3498    0.9798 H   0  0  0  0  0  0  0  0  0  0  0  0
   14.9568   -3.4468    1.5992 H   0  0  0  0  0  0  0  0  0  0  0  0
   15.8264   -3.3856    3.7413 H   0  0  0  0  0  0  0  0  0  0  0  0
   15.6703   -2.5566    5.7801 H   0  0  0  0  0  0  0  0  0  0  0  0
   13.9210   -2.3400    5.4341 H   0  0  0  0  0  0  0  0  0  0  0  0
   13.6305   -3.5106    7.1989 H   0  0  0  0  0  0  0  0  0  0  0  0
   14.1349   -4.8138    9.7108 H   0  0  0  0  0  0  0  0  0  0  0  0
   14.3335   -6.1719    8.5520 H   0  0  0  0  0  0  0  0  0  0  0  0
   16.6298   -6.5582    9.3873 H   0  0  0  0  0  0  0  0  0  0  0  0
   16.4488   -5.1875   10.5340 H   0  0  0  0  0  0  0  0  0  0  0  0
   14.5933   -6.3578   11.6401 H   0  0  0  0  0  0  0  0  0  0  0  0
   14.7743   -7.7286   10.4935 H   0  0  0  0  0  0  0  0  0  0  0  0
   16.5474   -8.8103   13.4735 H   0  0  0  0  0  0  0  0  0  0  0  0
   15.0461   -7.8241   13.4645 H   0  0  0  0  0  0  0  0  0  0  0  0
   15.2271   -9.1949   12.3179 H   0  0  0  0  0  0  0  0  0  0  0  0
   18.0880   -8.6525   11.6595 H   0  0  0  0  0  0  0  0  0  0  0  0
   16.7670   -9.0371   10.5048 H   0  0  0  0  0  0  0  0  0  0  0  0
   17.7464   -7.5474   10.2854 H   0  0  0  0  0  0  0  0  0  0  0  0
   15.9831   -5.5678    4.8317 H   0  0  0  0  0  0  0  0  0  0  0  0
   14.2005   -5.7698    4.7410 H   0  0  0  0  0  0  0  0  0  0  0  0
   16.1939   -5.6121    2.4239 H   0  0  0  0  0  0  0  0  0  0  0  0
   15.1671   -7.0073    2.8990 H   0  0  0  0  0  0  0  0  0  0  0  0
   14.4118   -5.6644    0.8567 H   0  0  0  0  0  0  0  0  0  0  0  0
   12.3943   -5.8013    3.1403 H   0  0  0  0  0  0  0  0  0  0  0  0
   13.5762   -7.6004    0.0481 H   0  0  0  0  0  0  0  0  0  0  0  0
   13.7142  -10.0638   -0.0948 H   0  0  0  0  0  0  0  0  0  0  0  0
   12.9712  -11.4439    1.8148 H   0  0  0  0  0  0  0  0  0  0  0  0
   12.0723  -10.3759    3.8500 H   0  0  0  0  0  0  0  0  0  0  0  0
   11.9315   -7.9085    3.9979 H   0  0  0  0  0  0  0  0  0  0  0  0
  1  2  1  0  0  0  0
  2  3  1  0  0  0  0
  2  4  1  0  0  0  0
  4  5  2  0  0  0  0
  4  9  1  0  0  0  0
  5  6  1  0  0  0  0
  6  7  1  0  0  0  0
  7  8  1  0  0  0  0
  7 34  2  0  0  0  0
  8  9  2  0  0  0  0
  8 10  1  0  0  0  0
 10 11  1  0  0  0  0
 10 26  1  0  0  0  0
 11 12  1  0  0  0  0
 12 13  1  0  0  0  0
 12 24  1  0  0  0  0
 13 14  1  0  0  0  0
 14 15  1  0  0  0  0
 15 16  2  0  0  0  0
 15 17  2  0  0  0  0
 15 18  1  0  0  0  0
 18 19  1  0  0  0  0
 19 20  1  0  0  0  0
 20 21  1  0  0  0  0
 21 22  1  0  0  0  0
 21 23  1  0  0  0  0
 24 25  1  0  0  0  0
 25 26  1  0  0  0  0
 26 27  1  0  0  0  0
 27 28  1  0  0  0  0
 27 34  1  0  0  0  0
 28 29  2  0  0  0  0
 28 33  1  0  0  0  0
 29 30  1  0  0  0  0
 30 31  2  0  0  0  0
 31 32  1  0  0  0  0
 32 33  2  0  0  0  0
  1 35  1  0  0  0  0
  1 36  1  0  0  0  0
  1 37  1  0  0  0  0
  2 38  1  0  0  0  0
  3 39  1  0  0  0  0
  3 40  1  0  0  0  0
  3 41  1  0  0  0  0
  5 42  1  0  0  0  0
  6 43  1  0  0  0  0
  6 44  1  0  0  0  0
  9 45  1  0  0  0  0
 10 46  1  0  0  0  0
 12 47  1  0  0  0  0
 13 48  1  0  0  0  0
 13 49  1  0  0  0  0
 14 50  1  0  0  0  0
 18 51  1  0  0  0  0
 18 52  1  0  0  0  0
 19 53  1  0  0  0  0
 19 54  1  0  0  0  0
 20 55  1  0  0  0  0
 20 56  1  0  0  0  0
 22 57  1  0  0  0  0
 22 58  1  0  0  0  0
 22 59  1  0  0  0  0
 23 60  1  0  0  0  0
 23 61  1  0  0  0  0
 23 62  1  0  0  0  0
 24 63  1  0  0  0  0
 24 64  1  0  0  0  0
 25 65  1  0  0  0  0
 25 66  1  0  0  0  0
 26 67  1  0  0  0  0
 27 68  1  0  0  0  0
 29 69  1  0  0  0  0
 30 70  1  0  0  0  0
 31 71  1  0  0  0  0
 32 72  1  0  0  0  0
 33 73  1  0  0  0  0
M  END
> <ID>
CHEMBL1084143

> <IC50[nM]>
2

$$$$
