CHEMBL1086409
  -OEChem-05192314313D
 Structure written by MMmdl.
 50 53  0     1  0  0  0  0  0999 V2000
   15.2852   -4.6386    7.5377 C   0  0  0  0  0  0  0  0  0  0  0  0
   14.2140   -3.9638    6.6838 N   0  0  0  0  0  0  0  0  0  0  0  0
   14.7229   -3.0568    5.5568 C   0  0  0  0  0  0  0  0  0  0  0  0
   14.9031   -3.7791    4.1930 C   0  0  1  0  0  0  0  0  0  0  0  0
   15.0673   -5.3233    4.2376 C   0  0  0  0  0  0  0  0  0  0  0  0
   15.2106   -5.9104    2.8268 C   0  0  0  0  0  0  0  0  0  0  0  0
   14.0964   -5.4064    1.8821 C   0  0  1  0  0  0  0  0  0  0  0  0
   12.7040   -6.0577    2.1299 C   0  0  2  0  0  0  0  0  0  0  0  0
   12.7501   -7.5747    2.0307 C   0  0  0  0  0  0  0  0  0  0  0  0
   13.2481   -8.1929    0.8744 C   0  0  0  0  0  0  0  0  0  0  0  0
   13.3274   -9.5772    0.8022 C   0  0  0  0  0  0  0  0  0  0  0  0
   12.9065  -10.3273    1.8986 C   0  0  0  0  0  0  0  0  0  0  0  0
   12.9781  -11.6576    1.9122 F   0  0  0  0  0  0  0  0  0  0  0  0
   12.4005   -9.7294    3.0355 C   0  0  0  0  0  0  0  0  0  0  0  0
   12.3196   -8.3522    3.1084 C   0  0  0  0  0  0  0  0  0  0  0  0
   11.6986   -5.5069    1.2248 N   0  0  0  0  0  0  0  0  0  0  0  0
   11.7870   -4.1773    0.7812 C   0  0  0  0  0  0  0  0  0  0  0  0
   10.7766   -3.7112   -0.0571 C   0  0  0  0  0  0  0  0  0  0  0  0
   10.8176   -2.4109   -0.5470 C   0  0  0  0  0  0  0  0  0  0  0  0
   11.8604   -1.5556   -0.1863 C   0  0  0  0  0  0  0  0  0  0  0  0
   11.9094   -0.1390   -0.7460 C   0  0  0  0  0  0  0  0  0  0  0  0
   12.5320   -0.1612   -1.9254 F   0  0  0  0  0  0  0  0  0  0  0  0
   10.6767    0.3334   -0.9239 F   0  0  0  0  0  0  0  0  0  0  0  0
   12.5676    0.6891    0.0651 F   0  0  0  0  0  0  0  0  0  0  0  0
   12.8548   -2.0208    0.6812 C   0  0  0  0  0  0  0  0  0  0  0  0
   12.8610   -3.3416    1.1411 C   0  0  0  0  0  0  0  0  0  0  0  0
   14.0088   -3.8657    1.9891 C   0  0  1  0  0  0  0  0  0  0  0  0
   13.7932   -3.4672    3.3434 O   0  0  0  0  0  0  0  0  0  0  0  0
   14.8038   -5.2594    8.3077 H   0  0  0  0  0  0  0  0  0  0  0  0
   15.9179   -5.2722    6.8988 H   0  0  0  0  0  0  0  0  0  0  0  0
   15.9060   -3.8702    8.0217 H   0  0  0  0  0  0  0  0  0  0  0  0
   13.6560   -4.6826    6.2692 H   0  0  0  0  0  0  0  0  0  0  0  0
   14.0019   -2.2372    5.4209 H   0  0  0  0  0  0  0  0  0  0  0  0
   15.6960   -2.6427    5.8595 H   0  0  0  0  0  0  0  0  0  0  0  0
   15.8166   -3.3731    3.7340 H   0  0  0  0  0  0  0  0  0  0  0  0
   15.9658   -5.5713    4.8218 H   0  0  0  0  0  0  0  0  0  0  0  0
   14.1827   -5.7638    4.7208 H   0  0  0  0  0  0  0  0  0  0  0  0
   16.1872   -5.6154    2.4154 H   0  0  0  0  0  0  0  0  0  0  0  0
   15.1554   -7.0072    2.8898 H   0  0  0  0  0  0  0  0  0  0  0  0
   14.3970   -5.6514    0.8527 H   0  0  0  0  0  0  0  0  0  0  0  0
   12.4111   -5.8053    3.1597 H   0  0  0  0  0  0  0  0  0  0  0  0
   13.5707   -7.5906    0.0380 H   0  0  0  0  0  0  0  0  0  0  0  0
   13.7072  -10.0623   -0.0848 H   0  0  0  0  0  0  0  0  0  0  0  0
   12.0690  -10.3363    3.8651 H   0  0  0  0  0  0  0  0  0  0  0  0
   11.9250   -7.8785    3.9952 H   0  0  0  0  0  0  0  0  0  0  0  0
   11.7043   -6.0822    0.4069 H   0  0  0  0  0  0  0  0  0  0  0  0
    9.9585   -4.3624   -0.3273 H   0  0  0  0  0  0  0  0  0  0  0  0
   10.0396   -2.0609   -1.2093 H   0  0  0  0  0  0  0  0  0  0  0  0
   13.6341   -1.3456    1.0025 H   0  0  0  0  0  0  0  0  0  0  0  0
   14.9501   -3.4367    1.6151 H   0  0  0  0  0  0  0  0  0  0  0  0
  1  2  1  0  0  0  0
  2  3  1  0  0  0  0
  3  4  1  0  0  0  0
  4  5  1  0  0  0  0
  4 28  1  0  0  0  0
  5  6  1  0  0  0  0
  6  7  1  0  0  0  0
  7  8  1  0  0  0  0
  7 27  1  0  0  0  0
  8  9  1  0  0  0  0
  8 16  1  0  0  0  0
  9 10  2  0  0  0  0
  9 15  1  0  0  0  0
 10 11  1  0  0  0  0
 11 12  2  0  0  0  0
 12 13  1  0  0  0  0
 12 14  1  0  0  0  0
 14 15  2  0  0  0  0
 16 17  1  0  0  0  0
 17 18  2  0  0  0  0
 17 26  1  0  0  0  0
 18 19  1  0  0  0  0
 19 20  2  0  0  0  0
 20 21  1  0  0  0  0
 20 25  1  0  0  0  0
 21 22  1  0  0  0  0
 21 23  1  0  0  0  0
 21 24  1  0  0  0  0
 25 26  2  0  0  0  0
 26 27  1  0  0  0  0
 27 28  1  0  0  0  0
  1 29  1  0  0  0  0
  1 30  1  0  0  0  0
  1 31  1  0  0  0  0
  2 32  1  0  0  0  0
  3 33  1  0  0  0  0
  3 34  1  0  0  0  0
  4 35  1  0  0  0  0
  5 36  1  0  0  0  0
  5 37  1  0  0  0  0
  6 38  1  0  0  0  0
  6 39  1  0  0  0  0
  7 40  1  0  0  0  0
  8 41  1  0  0  0  0
 10 42  1  0  0  0  0
 11 43  1  0  0  0  0
 14 44  1  0  0  0  0
 15 45  1  0  0  0  0
 16 46  1  0  0  0  0
 18 47  1  0  0  0  0
 19 48  1  0  0  0  0
 25 49  1  0  0  0  0
 27 50  1  0  0  0  0
M  END
> <ID>
CHEMBL1086409

> <IC50[nM]>
58

$$$$
CHEMBL1086409
  -OEChem-05192314313D
 Structure written by MMmdl.
 50 53  0     1  0  0  0  0  0999 V2000
   15.2852   -4.6386    7.5377 C   0  0  0  0  0  0  0  0  0  0  0  0
   14.2140   -3.9638    6.6838 N   0  0  0  0  0  0  0  0  0  0  0  0
   14.7229   -3.0568    5.5568 C   0  0  0  0  0  0  0  0  0  0  0  0
   14.9031   -3.7791    4.1930 C   0  0  1  0  0  0  0  0  0  0  0  0
   15.0673   -5.3233    4.2376 C   0  0  0  0  0  0  0  0  0  0  0  0
   15.2106   -5.9104    2.8268 C   0  0  0  0  0  0  0  0  0  0  0  0
   14.0964   -5.4064    1.8821 C   0  0  1  0  0  0  0  0  0  0  0  0
   12.7040   -6.0577    2.1299 C   0  0  2  0  0  0  0  0  0  0  0  0
   12.7501   -7.5747    2.0307 C   0  0  0  0  0  0  0  0  0  0  0  0
   13.2481   -8.1929    0.8744 C   0  0  0  0  0  0  0  0  0  0  0  0
   13.3274   -9.5772    0.8022 C   0  0  0  0  0  0  0  0  0  0  0  0
   12.9065  -10.3273    1.8986 C   0  0  0  0  0  0  0  0  0  0  0  0
   12.9781  -11.6576    1.9122 F   0  0  0  0  0  0  0  0  0  0  0  0
   12.4005   -9.7294    3.0355 C   0  0  0  0  0  0  0  0  0  0  0  0
   12.3196   -8.3522    3.1084 C   0  0  0  0  0  0  0  0  0  0  0  0
   11.6986   -5.5069    1.2248 N   0  0  0  0  0  0  0  0  0  0  0  0
   11.7870   -4.1773    0.7812 C   0  0  0  0  0  0  0  0  0  0  0  0
   10.7766   -3.7112   -0.0571 C   0  0  0  0  0  0  0  0  0  0  0  0
   10.8176   -2.4109   -0.5470 C   0  0  0  0  0  0  0  0  0  0  0  0
   11.8604   -1.5556   -0.1863 C   0  0  0  0  0  0  0  0  0  0  0  0
   11.9094   -0.1390   -0.7460 C   0  0  0  0  0  0  0  0  0  0  0  0
   12.5320   -0.1612   -1.9254 F   0  0  0  0  0  0  0  0  0  0  0  0
   10.6767    0.3334   -0.9239 F   0  0  0  0  0  0  0  0  0  0  0  0
   12.5676    0.6891    0.0651 F   0  0  0  0  0  0  0  0  0  0  0  0
   12.8548   -2.0208    0.6812 C   0  0  0  0  0  0  0  0  0  0  0  0
   12.8610   -3.3416    1.1411 C   0  0  0  0  0  0  0  0  0  0  0  0
   14.0088   -3.8657    1.9891 C   0  0  1  0  0  0  0  0  0  0  0  0
   13.7932   -3.4672    3.3434 O   0  0  0  0  0  0  0  0  0  0  0  0
   14.8038   -5.2594    8.3077 H   0  0  0  0  0  0  0  0  0  0  0  0
   15.9179   -5.2722    6.8988 H   0  0  0  0  0  0  0  0  0  0  0  0
   15.9060   -3.8702    8.0217 H   0  0  0  0  0  0  0  0  0  0  0  0
   13.6560   -4.6826    6.2692 H   0  0  0  0  0  0  0  0  0  0  0  0
   14.0019   -2.2372    5.4209 H   0  0  0  0  0  0  0  0  0  0  0  0
   15.6960   -2.6427    5.8595 H   0  0  0  0  0  0  0  0  0  0  0  0
   15.8166   -3.3731    3.7340 H   0  0  0  0  0  0  0  0  0  0  0  0
   15.9658   -5.5713    4.8218 H   0  0  0  0  0  0  0  0  0  0  0  0
   14.1827   -5.7638    4.7208 H   0  0  0  0  0  0  0  0  0  0  0  0
   16.1872   -5.6154    2.4154 H   0  0  0  0  0  0  0  0  0  0  0  0
   15.1554   -7.0072    2.8898 H   0  0  0  0  0  0  0  0  0  0  0  0
   14.3970   -5.6514    0.8527 H   0  0  0  0  0  0  0  0  0  0  0  0
   12.4111   -5.8053    3.1597 H   0  0  0  0  0  0  0  0  0  0  0  0
   13.5707   -7.5906    0.0380 H   0  0  0  0  0  0  0  0  0  0  0  0
   13.7072  -10.0623   -0.0848 H   0  0  0  0  0  0  0  0  0  0  0  0
   12.0690  -10.3363    3.8651 H   0  0  0  0  0  0  0  0  0  0  0  0
   11.9250   -7.8785    3.9952 H   0  0  0  0  0  0  0  0  0  0  0  0
    9.9585   -4.3624   -0.3273 H   0  0  0  0  0  0  0  0  0  0  0  0
   10.0396   -2.0609   -1.2093 H   0  0  0  0  0  0  0  0  0  0  0  0
   11.2739   -1.1985    0.6731 H   0  0  0  0  0  0  0  0  0  0  0  0
   13.6341   -1.3456    1.0025 H   0  0  0  0  0  0  0  0  0  0  0  0
   14.9501   -3.4367    1.6151 H   0  0  0  0  0  0  0  0  0  0  0  0
  1  2  1  0  0  0  0
  2  3  1  0  0  0  0
  3  4  1  0  0  0  0
  4  5  1  0  0  0  0
  4 28  1  0  0  0  0
  5  6  1  0  0  0  0
  6  7  1  0  0  0  0
  7  8  1  0  0  0  0
  7 27  1  0  0  0  0
  8  9  1  0  0  0  0
  8 16  1  0  0  0  0
  9 10  2  0  0  0  0
  9 15  1  0  0  0  0
 10 11  1  0  0  0  0
 11 12  2  0  0  0  0
 12 13  1  0  0  0  0
 12 14  1  0  0  0  0
 14 15  2  0  0  0  0
 16 17  2  0  0  0  0
 17 18  1  0  0  0  0
 17 26  1  0  0  0  0
 18 19  2  0  0  0  0
 19 20  1  0  0  0  0
 20 21  1  0  0  0  0
 20 25  1  0  0  0  0
 21 22  1  0  0  0  0
 21 23  1  0  0  0  0
 21 24  1  0  0  0  0
 25 26  2  0  0  0  0
 26 27  1  0  0  0  0
 27 28  1  0  0  0  0
  1 29  1  0  0  0  0
  1 30  1  0  0  0  0
  1 31  1  0  0  0  0
  2 32  1  0  0  0  0
  3 33  1  0  0  0  0
  3 34  1  0  0  0  0
  4 35  1  0  0  0  0
  5 36  1  0  0  0  0
  5 37  1  0  0  0  0
  6 38  1  0  0  0  0
  6 39  1  0  0  0  0
  7 40  1  0  0  0  0
  8 41  1  0  0  0  0
 10 42  1  0  0  0  0
 11 43  1  0  0  0  0
 14 44  1  0  0  0  0
 15 45  1  0  0  0  0
 18 46  1  0  0  0  0
 19 47  1  0  0  0  0
 20 48  1  0  0  0  0
 25 49  1  0  0  0  0
 27 50  1  0  0  0  0
M  END
> <ID>
CHEMBL1086409

> <IC50[nM]>
58

$$$$
CHEMBL1086409
  -OEChem-05192314313D
 Structure written by MMmdl.
 50 53  0     1  0  0  0  0  0999 V2000
   15.2852   -4.6386    7.5377 C   0  0  0  0  0  0  0  0  0  0  0  0
   14.2140   -3.9638    6.6838 N   0  0  0  0  0  0  0  0  0  0  0  0
   14.7229   -3.0568    5.5568 C   0  0  0  0  0  0  0  0  0  0  0  0
   14.9031   -3.7791    4.1930 C   0  0  1  0  0  0  0  0  0  0  0  0
   15.0673   -5.3233    4.2376 C   0  0  0  0  0  0  0  0  0  0  0  0
   15.2106   -5.9104    2.8268 C   0  0  0  0  0  0  0  0  0  0  0  0
   14.0964   -5.4064    1.8821 C   0  0  1  0  0  0  0  0  0  0  0  0
   12.7040   -6.0577    2.1299 C   0  0  2  0  0  0  0  0  0  0  0  0
   12.7501   -7.5747    2.0307 C   0  0  0  0  0  0  0  0  0  0  0  0
   13.2481   -8.1929    0.8744 C   0  0  0  0  0  0  0  0  0  0  0  0
   13.3274   -9.5772    0.8022 C   0  0  0  0  0  0  0  0  0  0  0  0
   12.9065  -10.3273    1.8986 C   0  0  0  0  0  0  0  0  0  0  0  0
   12.9781  -11.6576    1.9122 F   0  0  0  0  0  0  0  0  0  0  0  0
   12.4005   -9.7294    3.0355 C   0  0  0  0  0  0  0  0  0  0  0  0
   12.3196   -8.3522    3.1084 C   0  0  0  0  0  0  0  0  0  0  0  0
   11.6986   -5.5069    1.2248 N   0  0  0  0  0  0  0  0  0  0  0  0
   11.7870   -4.1773    0.7812 C   0  0  0  0  0  0  0  0  0  0  0  0
   10.7766   -3.7112   -0.0571 C   0  0  0  0  0  0  0  0  0  0  0  0
   10.8176   -2.4109   -0.5470 C   0  0  0  0  0  0  0  0  0  0  0  0
   11.8604   -1.5556   -0.1863 C   0  0  0  0  0  0  0  0  0  0  0  0
   11.9094   -0.1390   -0.7460 C   0  0  0  0  0  0  0  0  0  0  0  0
   12.5320   -0.1612   -1.9254 F   0  0  0  0  0  0  0  0  0  0  0  0
   10.6767    0.3334   -0.9239 F   0  0  0  0  0  0  0  0  0  0  0  0
   12.5676    0.6891    0.0651 F   0  0  0  0  0  0  0  0  0  0  0  0
   12.8548   -2.0208    0.6812 C   0  0  0  0  0  0  0  0  0  0  0  0
   12.8610   -3.3416    1.1411 C   0  0  0  0  0  0  0  0  0  0  0  0
   14.0088   -3.8657    1.9891 C   0  0  1  0  0  0  0  0  0  0  0  0
   13.7932   -3.4672    3.3434 O   0  0  0  0  0  0  0  0  0  0  0  0
   14.8038   -5.2594    8.3077 H   0  0  0  0  0  0  0  0  0  0  0  0
   15.9179   -5.2722    6.8988 H   0  0  0  0  0  0  0  0  0  0  0  0
   15.9060   -3.8702    8.0217 H   0  0  0  0  0  0  0  0  0  0  0  0
   13.6560   -4.6826    6.2692 H   0  0  0  0  0  0  0  0  0  0  0  0
   14.0019   -2.2372    5.4209 H   0  0  0  0  0  0  0  0  0  0  0  0
   15.6960   -2.6427    5.8595 H   0  0  0  0  0  0  0  0  0  0  0  0
   15.8166   -3.3731    3.7340 H   0  0  0  0  0  0  0  0  0  0  0  0
   15.9658   -5.5713    4.8218 H   0  0  0  0  0  0  0  0  0  0  0  0
   14.1827   -5.7638    4.7208 H   0  0  0  0  0  0  0  0  0  0  0  0
   16.1872   -5.6154    2.4154 H   0  0  0  0  0  0  0  0  0  0  0  0
   15.1554   -7.0072    2.8898 H   0  0  0  0  0  0  0  0  0  0  0  0
   14.3970   -5.6514    0.8527 H   0  0  0  0  0  0  0  0  0  0  0  0
   12.4111   -5.8053    3.1597 H   0  0  0  0  0  0  0  0  0  0  0  0
   13.5707   -7.5906    0.0380 H   0  0  0  0  0  0  0  0  0  0  0  0
   13.7072  -10.0623   -0.0848 H   0  0  0  0  0  0  0  0  0  0  0  0
   12.0690  -10.3363    3.8651 H   0  0  0  0  0  0  0  0  0  0  0  0
   11.9250   -7.8785    3.9952 H   0  0  0  0  0  0  0  0  0  0  0  0
    9.9585   -4.3624   -0.3273 H   0  0  0  0  0  0  0  0  0  0  0  0
   10.0396   -2.0609   -1.2093 H   0  0  0  0  0  0  0  0  0  0  0  0
   13.6341   -1.3456    1.0025 H   0  0  0  0  0  0  0  0  0  0  0  0
   12.3236   -3.0334    2.0501 H   0  0  0  0  0  0  0  0  0  0  0  0
   14.9501   -3.4367    1.6151 H   0  0  0  0  0  0  0  0  0  0  0  0
  1  2  1  0  0  0  0
  2  3  1  0  0  0  0
  3  4  1  0  0  0  0
  4  5  1  0  0  0  0
  4 28  1  0  0  0  0
  5  6  1  0  0  0  0
  6  7  1  0  0  0  0
  7  8  1  0  0  0  0
  7 27  1  0  0  0  0
  8  9  1  0  0  0  0
  8 16  1  0  0  0  0
  9 10  2  0  0  0  0
  9 15  1  0  0  0  0
 10 11  1  0  0  0  0
 11 12  2  0  0  0  0
 12 13  1  0  0  0  0
 12 14  1  0  0  0  0
 14 15  2  0  0  0  0
 16 17  2  0  0  0  0
 17 18  1  0  0  0  0
 17 26  1  0  0  0  0
 18 19  2  0  0  0  0
 19 20  1  0  0  0  0
 20 21  1  0  0  0  0
 20 25  2  0  0  0  0
 21 22  1  0  0  0  0
 21 23  1  0  0  0  0
 21 24  1  0  0  0  0
 25 26  1  0  0  0  0
 26 27  1  0  0  0  0
 27 28  1  0  0  0  0
  1 29  1  0  0  0  0
  1 30  1  0  0  0  0
  1 31  1  0  0  0  0
  2 32  1  0  0  0  0
  3 33  1  0  0  0  0
  3 34  1  0  0  0  0
  4 35  1  0  0  0  0
  5 36  1  0  0  0  0
  5 37  1  0  0  0  0
  6 38  1  0  0  0  0
  6 39  1  0  0  0  0
  7 40  1  0  0  0  0
  8 41  1  0  0  0  0
 10 42  1  0  0  0  0
 11 43  1  0  0  0  0
 14 44  1  0  0  0  0
 15 45  1  0  0  0  0
 18 46  1  0  0  0  0
 19 47  1  0  0  0  0
 25 48  1  0  0  0  0
 26 49  1  0  0  0  0
 27 50  1  0  0  0  0
M  END
> <ID>
CHEMBL1086409

> <IC50[nM]>
58

$$$$
CHEMBL1086409
  -OEChem-05192314313D
 Structure written by MMmdl.
 50 53  0     1  0  0  0  0  0999 V2000
   15.2852   -4.6386    7.5377 C   0  0  0  0  0  0  0  0  0  0  0  0
   14.2140   -3.9638    6.6838 N   0  0  0  0  0  0  0  0  0  0  0  0
   14.7229   -3.0568    5.5568 C   0  0  0  0  0  0  0  0  0  0  0  0
   14.9031   -3.7791    4.1930 C   0  0  1  0  0  0  0  0  0  0  0  0
   15.0673   -5.3233    4.2376 C   0  0  0  0  0  0  0  0  0  0  0  0
   15.2106   -5.9104    2.8268 C   0  0  0  0  0  0  0  0  0  0  0  0
   14.0964   -5.4064    1.8821 C   0  0  1  0  0  0  0  0  0  0  0  0
   12.7040   -6.0577    2.1299 C   0  0  2  0  0  0  0  0  0  0  0  0
   12.7501   -7.5747    2.0307 C   0  0  0  0  0  0  0  0  0  0  0  0
   13.2481   -8.1929    0.8744 C   0  0  0  0  0  0  0  0  0  0  0  0
   13.3274   -9.5772    0.8022 C   0  0  0  0  0  0  0  0  0  0  0  0
   12.9065  -10.3273    1.8986 C   0  0  0  0  0  0  0  0  0  0  0  0
   12.9781  -11.6576    1.9122 F   0  0  0  0  0  0  0  0  0  0  0  0
   12.4005   -9.7294    3.0355 C   0  0  0  0  0  0  0  0  0  0  0  0
   12.3196   -8.3522    3.1084 C   0  0  0  0  0  0  0  0  0  0  0  0
   11.6986   -5.5069    1.2248 N   0  0  0  0  0  0  0  0  0  0  0  0
   11.7870   -4.1773    0.7812 C   0  0  0  0  0  0  0  0  0  0  0  0
   10.7766   -3.7112   -0.0571 C   0  0  0  0  0  0  0  0  0  0  0  0
   10.8176   -2.4109   -0.5470 C   0  0  0  0  0  0  0  0  0  0  0  0
   11.8604   -1.5556   -0.1863 C   0  0  0  0  0  0  0  0  0  0  0  0
   11.9094   -0.1390   -0.7460 C   0  0  0  0  0  0  0  0  0  0  0  0
   12.5320   -0.1612   -1.9254 F   0  0  0  0  0  0  0  0  0  0  0  0
   10.6767    0.3334   -0.9239 F   0  0  0  0  0  0  0  0  0  0  0  0
   12.5676    0.6891    0.0651 F   0  0  0  0  0  0  0  0  0  0  0  0
   12.8548   -2.0208    0.6812 C   0  0  0  0  0  0  0  0  0  0  0  0
   12.8610   -3.3416    1.1411 C   0  0  0  0  0  0  0  0  0  0  0  0
   14.0088   -3.8657    1.9891 C   0  0  1  0  0  0  0  0  0  0  0  0
   13.7932   -3.4672    3.3434 O   0  0  0  0  0  0  0  0  0  0  0  0
   14.8038   -5.2594    8.3077 H   0  0  0  0  0  0  0  0  0  0  0  0
   15.9179   -5.2722    6.8988 H   0  0  0  0  0  0  0  0  0  0  0  0
   15.9060   -3.8702    8.0217 H   0  0  0  0  0  0  0  0  0  0  0  0
   13.6560   -4.6826    6.2692 H   0  0  0  0  0  0  0  0  0  0  0  0
   14.0019   -2.2372    5.4209 H   0  0  0  0  0  0  0  0  0  0  0  0
   15.6960   -2.6427    5.8595 H   0  0  0  0  0  0  0  0  0  0  0  0
   15.8166   -3.3731    3.7340 H   0  0  0  0  0  0  0  0  0  0  0  0
   15.9658   -5.5713    4.8218 H   0  0  0  0  0  0  0  0  0  0  0  0
   14.1827   -5.7638    4.7208 H   0  0  0  0  0  0  0  0  0  0  0  0
   16.1872   -5.6154    2.4154 H   0  0  0  0  0  0  0  0  0  0  0  0
   15.1554   -7.0072    2.8898 H   0  0  0  0  0  0  0  0  0  0  0  0
   14.3970   -5.6514    0.8527 H   0  0  0  0  0  0  0  0  0  0  0  0
   12.4111   -5.8053    3.1597 H   0  0  0  0  0  0  0  0  0  0  0  0
   13.5707   -7.5906    0.0380 H   0  0  0  0  0  0  0  0  0  0  0  0
   13.7072  -10.0623   -0.0848 H   0  0  0  0  0  0  0  0  0  0  0  0
   12.0690  -10.3363    3.8651 H   0  0  0  0  0  0  0  0  0  0  0  0
   11.9250   -7.8785    3.9952 H   0  0  0  0  0  0  0  0  0  0  0  0
   10.7581   -4.3783   -0.9315 H   0  0  0  0  0  0  0  0  0  0  0  0
    9.8330   -3.8100    0.4995 H   0  0  0  0  0  0  0  0  0  0  0  0
   10.0396   -2.0609   -1.2093 H   0  0  0  0  0  0  0  0  0  0  0  0
   13.6341   -1.3456    1.0025 H   0  0  0  0  0  0  0  0  0  0  0  0
   14.9501   -3.4367    1.6151 H   0  0  0  0  0  0  0  0  0  0  0  0
  1  2  1  0  0  0  0
  2  3  1  0  0  0  0
  3  4  1  0  0  0  0
  4  5  1  0  0  0  0
  4 28  1  0  0  0  0
  5  6  1  0  0  0  0
  6  7  1  0  0  0  0
  7  8  1  0  0  0  0
  7 27  1  0  0  0  0
  8  9  1  0  0  0  0
  8 16  1  0  0  0  0
  9 10  2  0  0  0  0
  9 15  1  0  0  0  0
 10 11  1  0  0  0  0
 11 12  2  0  0  0  0
 12 13  1  0  0  0  0
 12 14  1  0  0  0  0
 14 15  2  0  0  0  0
 16 17  2  0  0  0  0
 17 18  1  0  0  0  0
 17 26  1  0  0  0  0
 18 19  1  0  0  0  0
 19 20  2  0  0  0  0
 20 21  1  0  0  0  0
 20 25  1  0  0  0  0
 21 22  1  0  0  0  0
 21 23  1  0  0  0  0
 21 24  1  0  0  0  0
 25 26  2  0  0  0  0
 26 27  1  0  0  0  0
 27 28  1  0  0  0  0
  1 29  1  0  0  0  0
  1 30  1  0  0  0  0
  1 31  1  0  0  0  0
  2 32  1  0  0  0  0
  3 33  1  0  0  0  0
  3 34  1  0  0  0  0
  4 35  1  0  0  0  0
  5 36  1  0  0  0  0
  5 37  1  0  0  0  0
  6 38  1  0  0  0  0
  6 39  1  0  0  0  0
  7 40  1  0  0  0  0
  8 41  1  0  0  0  0
 10 42  1  0  0  0  0
 11 43  1  0  0  0  0
 14 44  1  0  0  0  0
 15 45  1  0  0  0  0
 18 46  1  0  0  0  0
 18 47  1  0  0  0  0
 19 48  1  0  0  0  0
 25 49  1  0  0  0  0
 27 50  1  0  0  0  0
M  END
> <ID>
CHEMBL1086409

> <IC50[nM]>
58

$$$$
