CHEMBL1082248
  -OEChem-05192314313D
 Structure written by MMmdl.
 47 50  0     1  0  0  0  0  0999 V2000
   15.2950   -4.6489    7.5427 C   0  0  0  0  0  0  0  0  0  0  0  0
   14.2431   -3.9717    6.6832 N   0  0  0  0  0  0  0  0  0  0  0  0
   14.7152   -3.0566    5.5506 C   0  0  0  0  0  0  0  0  0  0  0  0
   14.8996   -3.7854    4.1962 C   0  0  1  0  0  0  0  0  0  0  0  0
   15.0784   -5.3263    4.2419 C   0  0  0  0  0  0  0  0  0  0  0  0
   15.2145   -5.9089    2.8275 C   0  0  0  0  0  0  0  0  0  0  0  0
   14.0958   -5.4103    1.8854 C   0  0  1  0  0  0  0  0  0  0  0  0
   12.7046   -6.0664    2.1334 C   0  0  2  0  0  0  0  0  0  0  0  0
   12.7522   -7.5891    2.0319 C   0  0  0  0  0  0  0  0  0  0  0  0
   13.2426   -8.2016    0.8733 C   0  0  0  0  0  0  0  0  0  0  0  0
   13.3140   -9.5878    0.7904 C   0  0  0  0  0  0  0  0  0  0  0  0
   12.8993  -10.3629    1.8685 C   0  0  0  0  0  0  0  0  0  0  0  0
   12.3976   -9.7624    3.0199 C   0  0  0  0  0  0  0  0  0  0  0  0
   12.3188   -8.3746    3.1014 C   0  0  0  0  0  0  0  0  0  0  0  0
   11.7003   -5.5083    1.2297 N   0  0  0  0  0  0  0  0  0  0  0  0
   11.7953   -4.1716    0.7885 C   0  0  0  0  0  0  0  0  0  0  0  0
   10.7805   -3.6907   -0.0459 C   0  0  0  0  0  0  0  0  0  0  0  0
    9.7395   -4.4635   -0.3381 F   0  0  0  0  0  0  0  0  0  0  0  0
   10.8168   -2.3885   -0.5402 C   0  0  0  0  0  0  0  0  0  0  0  0
   11.8588   -1.5562   -0.1789 C   0  0  0  0  0  0  0  0  0  0  0  0
   11.9219    0.2266   -0.8239 Br  0  0  0  0  0  0  0  0  0  0  0  0
   12.8579   -2.0181    0.6739 C   0  0  0  0  0  0  0  0  0  0  0  0
   12.8701   -3.3425    1.1348 C   0  0  0  0  0  0  0  0  0  0  0  0
   14.0136   -3.8673    1.9896 C   0  0  1  0  0  0  0  0  0  0  0  0
   13.8021   -3.4602    3.3414 O   0  0  0  0  0  0  0  0  0  0  0  0
   14.8020   -5.2682    8.3065 H   0  0  0  0  0  0  0  0  0  0  0  0
   15.9314   -5.2849    6.9099 H   0  0  0  0  0  0  0  0  0  0  0  0
   15.9143   -3.8843    8.0345 H   0  0  0  0  0  0  0  0  0  0  0  0
   13.6883   -4.6936    6.2696 H   0  0  0  0  0  0  0  0  0  0  0  0
   13.9709   -2.2579    5.4165 H   0  0  0  0  0  0  0  0  0  0  0  0
   15.6796   -2.6142    5.8409 H   0  0  0  0  0  0  0  0  0  0  0  0
   15.8153   -3.3777    3.7432 H   0  0  0  0  0  0  0  0  0  0  0  0
   15.9843   -5.5660    4.8180 H   0  0  0  0  0  0  0  0  0  0  0  0
   14.2023   -5.7753    4.7327 H   0  0  0  0  0  0  0  0  0  0  0  0
   16.1881   -5.6093    2.4123 H   0  0  0  0  0  0  0  0  0  0  0  0
   15.1641   -7.0060    2.8891 H   0  0  0  0  0  0  0  0  0  0  0  0
   14.3959   -5.6562    0.8561 H   0  0  0  0  0  0  0  0  0  0  0  0
   12.4123   -5.8168    3.1641 H   0  0  0  0  0  0  0  0  0  0  0  0
   13.5669   -7.5954    0.0403 H   0  0  0  0  0  0  0  0  0  0  0  0
   13.6892  -10.0598   -0.1056 H   0  0  0  0  0  0  0  0  0  0  0  0
   12.9671  -11.4393    1.8118 H   0  0  0  0  0  0  0  0  0  0  0  0
   12.0699  -10.3722    3.8489 H   0  0  0  0  0  0  0  0  0  0  0  0
   11.9230   -7.9066    3.9906 H   0  0  0  0  0  0  0  0  0  0  0  0
   11.7032   -6.0811    0.4100 H   0  0  0  0  0  0  0  0  0  0  0  0
   10.0383   -2.0333   -1.1991 H   0  0  0  0  0  0  0  0  0  0  0  0
   13.6399   -1.3422    0.9870 H   0  0  0  0  0  0  0  0  0  0  0  0
   14.9570   -3.4446    1.6137 H   0  0  0  0  0  0  0  0  0  0  0  0
  1  2  1  0  0  0  0
  2  3  1  0  0  0  0
  3  4  1  0  0  0  0
  4  5  1  0  0  0  0
  4 25  1  0  0  0  0
  5  6  1  0  0  0  0
  6  7  1  0  0  0  0
  7  8  1  0  0  0  0
  7 24  1  0  0  0  0
  8  9  1  0  0  0  0
  8 15  1  0  0  0  0
  9 10  2  0  0  0  0
  9 14  1  0  0  0  0
 10 11  1  0  0  0  0
 11 12  2  0  0  0  0
 12 13  1  0  0  0  0
 13 14  2  0  0  0  0
 15 16  1  0  0  0  0
 16 17  2  0  0  0  0
 16 23  1  0  0  0  0
 17 18  1  0  0  0  0
 17 19  1  0  0  0  0
 19 20  2  0  0  0  0
 20 21  1  0  0  0  0
 20 22  1  0  0  0  0
 22 23  2  0  0  0  0
 23 24  1  0  0  0  0
 24 25  1  0  0  0  0
  1 26  1  0  0  0  0
  1 27  1  0  0  0  0
  1 28  1  0  0  0  0
  2 29  1  0  0  0  0
  3 30  1  0  0  0  0
  3 31  1  0  0  0  0
  4 32  1  0  0  0  0
  5 33  1  0  0  0  0
  5 34  1  0  0  0  0
  6 35  1  0  0  0  0
  6 36  1  0  0  0  0
  7 37  1  0  0  0  0
  8 38  1  0  0  0  0
 10 39  1  0  0  0  0
 11 40  1  0  0  0  0
 12 41  1  0  0  0  0
 13 42  1  0  0  0  0
 14 43  1  0  0  0  0
 15 44  1  0  0  0  0
 19 45  1  0  0  0  0
 22 46  1  0  0  0  0
 24 47  1  0  0  0  0
M  END
> <ID>
CHEMBL1082248

> <IC50[nM]>
3

$$$$
CHEMBL1082248
  -OEChem-05192314313D
 Structure written by MMmdl.
 47 50  0     1  0  0  0  0  0999 V2000
   15.2950   -4.6489    7.5427 C   0  0  0  0  0  0  0  0  0  0  0  0
   14.2431   -3.9717    6.6832 N   0  0  0  0  0  0  0  0  0  0  0  0
   14.7152   -3.0566    5.5506 C   0  0  0  0  0  0  0  0  0  0  0  0
   14.8996   -3.7854    4.1962 C   0  0  1  0  0  0  0  0  0  0  0  0
   15.0784   -5.3263    4.2419 C   0  0  0  0  0  0  0  0  0  0  0  0
   15.2145   -5.9089    2.8275 C   0  0  0  0  0  0  0  0  0  0  0  0
   14.0958   -5.4103    1.8854 C   0  0  1  0  0  0  0  0  0  0  0  0
   12.7046   -6.0664    2.1334 C   0  0  2  0  0  0  0  0  0  0  0  0
   12.7522   -7.5891    2.0319 C   0  0  0  0  0  0  0  0  0  0  0  0
   13.2426   -8.2016    0.8733 C   0  0  0  0  0  0  0  0  0  0  0  0
   13.3140   -9.5878    0.7904 C   0  0  0  0  0  0  0  0  0  0  0  0
   12.8993  -10.3629    1.8685 C   0  0  0  0  0  0  0  0  0  0  0  0
   12.3976   -9.7624    3.0199 C   0  0  0  0  0  0  0  0  0  0  0  0
   12.3188   -8.3746    3.1014 C   0  0  0  0  0  0  0  0  0  0  0  0
   11.7003   -5.5083    1.2297 N   0  0  0  0  0  0  0  0  0  0  0  0
   11.7953   -4.1716    0.7885 C   0  0  0  0  0  0  0  0  0  0  0  0
   10.7805   -3.6907   -0.0459 C   0  0  0  0  0  0  0  0  0  0  0  0
    9.7395   -4.4635   -0.3381 F   0  0  0  0  0  0  0  0  0  0  0  0
   10.8168   -2.3885   -0.5402 C   0  0  0  0  0  0  0  0  0  0  0  0
   11.8588   -1.5562   -0.1789 C   0  0  0  0  0  0  0  0  0  0  0  0
   11.9219    0.2266   -0.8239 Br  0  0  0  0  0  0  0  0  0  0  0  0
   12.8579   -2.0181    0.6739 C   0  0  0  0  0  0  0  0  0  0  0  0
   12.8701   -3.3425    1.1348 C   0  0  0  0  0  0  0  0  0  0  0  0
   14.0136   -3.8673    1.9896 C   0  0  1  0  0  0  0  0  0  0  0  0
   13.8021   -3.4602    3.3414 O   0  0  0  0  0  0  0  0  0  0  0  0
   14.8020   -5.2682    8.3065 H   0  0  0  0  0  0  0  0  0  0  0  0
   15.9314   -5.2849    6.9099 H   0  0  0  0  0  0  0  0  0  0  0  0
   15.9143   -3.8843    8.0345 H   0  0  0  0  0  0  0  0  0  0  0  0
   13.6883   -4.6936    6.2696 H   0  0  0  0  0  0  0  0  0  0  0  0
   13.9709   -2.2579    5.4165 H   0  0  0  0  0  0  0  0  0  0  0  0
   15.6796   -2.6142    5.8409 H   0  0  0  0  0  0  0  0  0  0  0  0
   15.8153   -3.3777    3.7432 H   0  0  0  0  0  0  0  0  0  0  0  0
   15.9843   -5.5660    4.8180 H   0  0  0  0  0  0  0  0  0  0  0  0
   14.2023   -5.7753    4.7327 H   0  0  0  0  0  0  0  0  0  0  0  0
   16.1881   -5.6093    2.4123 H   0  0  0  0  0  0  0  0  0  0  0  0
   15.1641   -7.0060    2.8891 H   0  0  0  0  0  0  0  0  0  0  0  0
   14.3959   -5.6562    0.8561 H   0  0  0  0  0  0  0  0  0  0  0  0
   12.4123   -5.8168    3.1641 H   0  0  0  0  0  0  0  0  0  0  0  0
   13.5669   -7.5954    0.0403 H   0  0  0  0  0  0  0  0  0  0  0  0
   13.6892  -10.0598   -0.1056 H   0  0  0  0  0  0  0  0  0  0  0  0
   12.9671  -11.4393    1.8118 H   0  0  0  0  0  0  0  0  0  0  0  0
   12.0699  -10.3722    3.8489 H   0  0  0  0  0  0  0  0  0  0  0  0
   11.9230   -7.9066    3.9906 H   0  0  0  0  0  0  0  0  0  0  0  0
   10.0383   -2.0333   -1.1991 H   0  0  0  0  0  0  0  0  0  0  0  0
   12.4385   -1.8957   -1.0499 H   0  0  0  0  0  0  0  0  0  0  0  0
   13.6399   -1.3422    0.9870 H   0  0  0  0  0  0  0  0  0  0  0  0
   14.9570   -3.4446    1.6137 H   0  0  0  0  0  0  0  0  0  0  0  0
  1  2  1  0  0  0  0
  2  3  1  0  0  0  0
  3  4  1  0  0  0  0
  4  5  1  0  0  0  0
  4 25  1  0  0  0  0
  5  6  1  0  0  0  0
  6  7  1  0  0  0  0
  7  8  1  0  0  0  0
  7 24  1  0  0  0  0
  8  9  1  0  0  0  0
  8 15  1  0  0  0  0
  9 10  2  0  0  0  0
  9 14  1  0  0  0  0
 10 11  1  0  0  0  0
 11 12  2  0  0  0  0
 12 13  1  0  0  0  0
 13 14  2  0  0  0  0
 15 16  2  0  0  0  0
 16 17  1  0  0  0  0
 16 23  1  0  0  0  0
 17 18  1  0  0  0  0
 17 19  2  0  0  0  0
 19 20  1  0  0  0  0
 20 21  1  0  0  0  0
 20 22  1  0  0  0  0
 22 23  2  0  0  0  0
 23 24  1  0  0  0  0
 24 25  1  0  0  0  0
  1 26  1  0  0  0  0
  1 27  1  0  0  0  0
  1 28  1  0  0  0  0
  2 29  1  0  0  0  0
  3 30  1  0  0  0  0
  3 31  1  0  0  0  0
  4 32  1  0  0  0  0
  5 33  1  0  0  0  0
  5 34  1  0  0  0  0
  6 35  1  0  0  0  0
  6 36  1  0  0  0  0
  7 37  1  0  0  0  0
  8 38  1  0  0  0  0
 10 39  1  0  0  0  0
 11 40  1  0  0  0  0
 12 41  1  0  0  0  0
 13 42  1  0  0  0  0
 14 43  1  0  0  0  0
 19 44  1  0  0  0  0
 20 45  1  0  0  0  0
 22 46  1  0  0  0  0
 24 47  1  0  0  0  0
M  END
> <ID>
CHEMBL1082248

> <IC50[nM]>
3

$$$$
CHEMBL1082248
  -OEChem-05192314313D
 Structure written by MMmdl.
 47 50  0     1  0  0  0  0  0999 V2000
   15.2950   -4.6489    7.5427 C   0  0  0  0  0  0  0  0  0  0  0  0
   14.2431   -3.9717    6.6832 N   0  0  0  0  0  0  0  0  0  0  0  0
   14.7152   -3.0566    5.5506 C   0  0  0  0  0  0  0  0  0  0  0  0
   14.8996   -3.7854    4.1962 C   0  0  1  0  0  0  0  0  0  0  0  0
   15.0784   -5.3263    4.2419 C   0  0  0  0  0  0  0  0  0  0  0  0
   15.2145   -5.9089    2.8275 C   0  0  0  0  0  0  0  0  0  0  0  0
   14.0958   -5.4103    1.8854 C   0  0  1  0  0  0  0  0  0  0  0  0
   12.7046   -6.0664    2.1334 C   0  0  2  0  0  0  0  0  0  0  0  0
   12.7522   -7.5891    2.0319 C   0  0  0  0  0  0  0  0  0  0  0  0
   13.2426   -8.2016    0.8733 C   0  0  0  0  0  0  0  0  0  0  0  0
   13.3140   -9.5878    0.7904 C   0  0  0  0  0  0  0  0  0  0  0  0
   12.8993  -10.3629    1.8685 C   0  0  0  0  0  0  0  0  0  0  0  0
   12.3976   -9.7624    3.0199 C   0  0  0  0  0  0  0  0  0  0  0  0
   12.3188   -8.3746    3.1014 C   0  0  0  0  0  0  0  0  0  0  0  0
   11.7003   -5.5083    1.2297 N   0  0  0  0  0  0  0  0  0  0  0  0
   11.7953   -4.1716    0.7885 C   0  0  0  0  0  0  0  0  0  0  0  0
   10.7805   -3.6907   -0.0459 C   0  0  0  0  0  0  0  0  0  0  0  0
    9.7395   -4.4635   -0.3381 F   0  0  0  0  0  0  0  0  0  0  0  0
   10.8168   -2.3885   -0.5402 C   0  0  0  0  0  0  0  0  0  0  0  0
   11.8588   -1.5562   -0.1789 C   0  0  0  0  0  0  0  0  0  0  0  0
   11.9219    0.2266   -0.8239 Br  0  0  0  0  0  0  0  0  0  0  0  0
   12.8579   -2.0181    0.6739 C   0  0  0  0  0  0  0  0  0  0  0  0
   12.8701   -3.3425    1.1348 C   0  0  0  0  0  0  0  0  0  0  0  0
   14.0136   -3.8673    1.9896 C   0  0  1  0  0  0  0  0  0  0  0  0
   13.8021   -3.4602    3.3414 O   0  0  0  0  0  0  0  0  0  0  0  0
   14.8020   -5.2682    8.3065 H   0  0  0  0  0  0  0  0  0  0  0  0
   15.9314   -5.2849    6.9099 H   0  0  0  0  0  0  0  0  0  0  0  0
   15.9143   -3.8843    8.0345 H   0  0  0  0  0  0  0  0  0  0  0  0
   13.6883   -4.6936    6.2696 H   0  0  0  0  0  0  0  0  0  0  0  0
   13.9709   -2.2579    5.4165 H   0  0  0  0  0  0  0  0  0  0  0  0
   15.6796   -2.6142    5.8409 H   0  0  0  0  0  0  0  0  0  0  0  0
   15.8153   -3.3777    3.7432 H   0  0  0  0  0  0  0  0  0  0  0  0
   15.9843   -5.5660    4.8180 H   0  0  0  0  0  0  0  0  0  0  0  0
   14.2023   -5.7753    4.7327 H   0  0  0  0  0  0  0  0  0  0  0  0
   16.1881   -5.6093    2.4123 H   0  0  0  0  0  0  0  0  0  0  0  0
   15.1641   -7.0060    2.8891 H   0  0  0  0  0  0  0  0  0  0  0  0
   14.3959   -5.6562    0.8561 H   0  0  0  0  0  0  0  0  0  0  0  0
   12.4123   -5.8168    3.1641 H   0  0  0  0  0  0  0  0  0  0  0  0
   13.5669   -7.5954    0.0403 H   0  0  0  0  0  0  0  0  0  0  0  0
   13.6892  -10.0598   -0.1056 H   0  0  0  0  0  0  0  0  0  0  0  0
   12.9671  -11.4393    1.8118 H   0  0  0  0  0  0  0  0  0  0  0  0
   12.0699  -10.3722    3.8489 H   0  0  0  0  0  0  0  0  0  0  0  0
   11.9230   -7.9066    3.9906 H   0  0  0  0  0  0  0  0  0  0  0  0
   10.0383   -2.0333   -1.1991 H   0  0  0  0  0  0  0  0  0  0  0  0
   13.6399   -1.3422    0.9870 H   0  0  0  0  0  0  0  0  0  0  0  0
   13.4051   -3.6549    0.2258 H   0  0  0  0  0  0  0  0  0  0  0  0
   14.9570   -3.4446    1.6137 H   0  0  0  0  0  0  0  0  0  0  0  0
  1  2  1  0  0  0  0
  2  3  1  0  0  0  0
  3  4  1  0  0  0  0
  4  5  1  0  0  0  0
  4 25  1  0  0  0  0
  5  6  1  0  0  0  0
  6  7  1  0  0  0  0
  7  8  1  0  0  0  0
  7 24  1  0  0  0  0
  8  9  1  0  0  0  0
  8 15  1  0  0  0  0
  9 10  2  0  0  0  0
  9 14  1  0  0  0  0
 10 11  1  0  0  0  0
 11 12  2  0  0  0  0
 12 13  1  0  0  0  0
 13 14  2  0  0  0  0
 15 16  2  0  0  0  0
 16 17  1  0  0  0  0
 16 23  1  0  0  0  0
 17 18  1  0  0  0  0
 17 19  2  0  0  0  0
 19 20  1  0  0  0  0
 20 21  1  0  0  0  0
 20 22  2  0  0  0  0
 22 23  1  0  0  0  0
 23 24  1  0  0  0  0
 24 25  1  0  0  0  0
  1 26  1  0  0  0  0
  1 27  1  0  0  0  0
  1 28  1  0  0  0  0
  2 29  1  0  0  0  0
  3 30  1  0  0  0  0
  3 31  1  0  0  0  0
  4 32  1  0  0  0  0
  5 33  1  0  0  0  0
  5 34  1  0  0  0  0
  6 35  1  0  0  0  0
  6 36  1  0  0  0  0
  7 37  1  0  0  0  0
  8 38  1  0  0  0  0
 10 39  1  0  0  0  0
 11 40  1  0  0  0  0
 12 41  1  0  0  0  0
 13 42  1  0  0  0  0
 14 43  1  0  0  0  0
 19 44  1  0  0  0  0
 22 45  1  0  0  0  0
 23 46  1  0  0  0  0
 24 47  1  0  0  0  0
M  END
> <ID>
CHEMBL1082248

> <IC50[nM]>
3

$$$$
CHEMBL1082248
  -OEChem-05192314313D
 Structure written by MMmdl.
 47 50  0     1  0  0  0  0  0999 V2000
   15.2950   -4.6489    7.5427 C   0  0  0  0  0  0  0  0  0  0  0  0
   14.2431   -3.9717    6.6832 N   0  0  0  0  0  0  0  0  0  0  0  0
   14.7152   -3.0566    5.5506 C   0  0  0  0  0  0  0  0  0  0  0  0
   14.8996   -3.7854    4.1962 C   0  0  1  0  0  0  0  0  0  0  0  0
   15.0784   -5.3263    4.2419 C   0  0  0  0  0  0  0  0  0  0  0  0
   15.2145   -5.9089    2.8275 C   0  0  0  0  0  0  0  0  0  0  0  0
   14.0958   -5.4103    1.8854 C   0  0  1  0  0  0  0  0  0  0  0  0
   12.7046   -6.0664    2.1334 C   0  0  2  0  0  0  0  0  0  0  0  0
   12.7522   -7.5891    2.0319 C   0  0  0  0  0  0  0  0  0  0  0  0
   13.2426   -8.2016    0.8733 C   0  0  0  0  0  0  0  0  0  0  0  0
   13.3140   -9.5878    0.7904 C   0  0  0  0  0  0  0  0  0  0  0  0
   12.8993  -10.3629    1.8685 C   0  0  0  0  0  0  0  0  0  0  0  0
   12.3976   -9.7624    3.0199 C   0  0  0  0  0  0  0  0  0  0  0  0
   12.3188   -8.3746    3.1014 C   0  0  0  0  0  0  0  0  0  0  0  0
   11.7003   -5.5083    1.2297 N   0  0  0  0  0  0  0  0  0  0  0  0
   11.7953   -4.1716    0.7885 C   0  0  0  0  0  0  0  0  0  0  0  0
   10.7805   -3.6907   -0.0459 C   0  0  0  0  0  0  0  0  0  0  0  0
    9.7395   -4.4635   -0.3381 F   0  0  0  0  0  0  0  0  0  0  0  0
   10.8168   -2.3885   -0.5402 C   0  0  0  0  0  0  0  0  0  0  0  0
   11.8588   -1.5562   -0.1789 C   0  0  0  0  0  0  0  0  0  0  0  0
   11.9219    0.2266   -0.8239 Br  0  0  0  0  0  0  0  0  0  0  0  0
   12.8579   -2.0181    0.6739 C   0  0  0  0  0  0  0  0  0  0  0  0
   12.8701   -3.3425    1.1348 C   0  0  0  0  0  0  0  0  0  0  0  0
   14.0136   -3.8673    1.9896 C   0  0  1  0  0  0  0  0  0  0  0  0
   13.8021   -3.4602    3.3414 O   0  0  0  0  0  0  0  0  0  0  0  0
   14.8020   -5.2682    8.3065 H   0  0  0  0  0  0  0  0  0  0  0  0
   15.9314   -5.2849    6.9099 H   0  0  0  0  0  0  0  0  0  0  0  0
   15.9143   -3.8843    8.0345 H   0  0  0  0  0  0  0  0  0  0  0  0
   13.6883   -4.6936    6.2696 H   0  0  0  0  0  0  0  0  0  0  0  0
   13.9709   -2.2579    5.4165 H   0  0  0  0  0  0  0  0  0  0  0  0
   15.6796   -2.6142    5.8409 H   0  0  0  0  0  0  0  0  0  0  0  0
   15.8153   -3.3777    3.7432 H   0  0  0  0  0  0  0  0  0  0  0  0
   15.9843   -5.5660    4.8180 H   0  0  0  0  0  0  0  0  0  0  0  0
   14.2023   -5.7753    4.7327 H   0  0  0  0  0  0  0  0  0  0  0  0
   16.1881   -5.6093    2.4123 H   0  0  0  0  0  0  0  0  0  0  0  0
   15.1641   -7.0060    2.8891 H   0  0  0  0  0  0  0  0  0  0  0  0
   14.3959   -5.6562    0.8561 H   0  0  0  0  0  0  0  0  0  0  0  0
   12.4123   -5.8168    3.1641 H   0  0  0  0  0  0  0  0  0  0  0  0
   13.5669   -7.5954    0.0403 H   0  0  0  0  0  0  0  0  0  0  0  0
   13.6892  -10.0598   -0.1056 H   0  0  0  0  0  0  0  0  0  0  0  0
   12.9671  -11.4393    1.8118 H   0  0  0  0  0  0  0  0  0  0  0  0
   12.0699  -10.3722    3.8489 H   0  0  0  0  0  0  0  0  0  0  0  0
   11.9230   -7.9066    3.9906 H   0  0  0  0  0  0  0  0  0  0  0  0
   11.3185   -4.0564   -0.9329 H   0  0  0  0  0  0  0  0  0  0  0  0
   10.0383   -2.0333   -1.1991 H   0  0  0  0  0  0  0  0  0  0  0  0
   13.6399   -1.3422    0.9870 H   0  0  0  0  0  0  0  0  0  0  0  0
   14.9570   -3.4446    1.6137 H   0  0  0  0  0  0  0  0  0  0  0  0
  1  2  1  0  0  0  0
  2  3  1  0  0  0  0
  3  4  1  0  0  0  0
  4  5  1  0  0  0  0
  4 25  1  0  0  0  0
  5  6  1  0  0  0  0
  6  7  1  0  0  0  0
  7  8  1  0  0  0  0
  7 24  1  0  0  0  0
  8  9  1  0  0  0  0
  8 15  1  0  0  0  0
  9 10  2  0  0  0  0
  9 14  1  0  0  0  0
 10 11  1  0  0  0  0
 11 12  2  0  0  0  0
 12 13  1  0  0  0  0
 13 14  2  0  0  0  0
 15 16  2  0  0  0  0
 16 17  1  0  0  0  0
 16 23  1  0  0  0  0
 17 18  1  0  0  0  0
 17 19  1  0  0  0  0
 19 20  2  0  0  0  0
 20 21  1  0  0  0  0
 20 22  1  0  0  0  0
 22 23  2  0  0  0  0
 23 24  1  0  0  0  0
 24 25  1  0  0  0  0
  1 26  1  0  0  0  0
  1 27  1  0  0  0  0
  1 28  1  0  0  0  0
  2 29  1  0  0  0  0
  3 30  1  0  0  0  0
  3 31  1  0  0  0  0
  4 32  1  0  0  0  0
  5 33  1  0  0  0  0
  5 34  1  0  0  0  0
  6 35  1  0  0  0  0
  6 36  1  0  0  0  0
  7 37  1  0  0  0  0
  8 38  1  0  0  0  0
 10 39  1  0  0  0  0
 11 40  1  0  0  0  0
 12 41  1  0  0  0  0
 13 42  1  0  0  0  0
 14 43  1  0  0  0  0
 17 44  1  0  0  0  0
 19 45  1  0  0  0  0
 22 46  1  0  0  0  0
 24 47  1  0  0  0  0
M  END
> <ID>
CHEMBL1082248

> <IC50[nM]>
3

$$$$
