CHEMBL1078998
  -OEChem-05192314313D
 Structure written by MMmdl.
 48 51  0     1  0  0  0  0  0999 V2000
   12.7976    0.8124    0.0757 C   0  0  0  0  0  0  0  0  0  0  0  0
   11.9223   -0.1613   -0.7525 C   0  0  0  0  0  0  0  0  0  0  0  0
   12.4837   -0.2199   -2.1743 C   0  0  0  0  0  0  0  0  0  0  0  0
   10.4601    0.3453   -0.8043 C   0  0  0  0  0  0  0  0  0  0  0  0
   11.8888   -1.5853   -0.1835 C   0  0  0  0  0  0  0  0  0  0  0  0
   10.8508   -2.4597   -0.5444 C   0  0  0  0  0  0  0  0  0  0  0  0
   10.7949   -3.7505   -0.0484 C   0  0  0  0  0  0  0  0  0  0  0  0
   11.8123   -4.2146    0.7836 C   0  0  0  0  0  0  0  0  0  0  0  0
   12.8780   -3.3664    1.1426 C   0  0  0  0  0  0  0  0  0  0  0  0
   12.8759   -2.0519    0.6772 C   0  0  0  0  0  0  0  0  0  0  0  0
   14.0261   -3.8755    1.9883 C   0  0  1  0  0  0  0  0  0  0  0  0
   13.8055   -3.4421    3.3329 O   0  0  0  0  0  0  0  0  0  0  0  0
   14.8759   -3.7853    4.2185 C   0  0  0  0  0  0  0  0  0  0  0  0
   15.0685   -5.3210    4.2539 C   0  0  0  0  0  0  0  0  0  0  0  0
   15.2293   -5.8998    2.8448 C   0  0  0  0  0  0  0  0  0  0  0  0
   14.1243   -5.4049    1.8889 C   0  0  1  0  0  0  0  0  0  0  0  0
   12.7346   -6.0749    2.1322 C   0  0  2  0  0  0  0  0  0  0  0  0
   12.7930   -7.5766    1.9454 C   0  0  0  0  0  0  0  0  0  0  0  0
   12.2219   -8.5635    2.7386 C   0  0  0  0  0  0  0  0  0  0  0  0
   12.4438   -9.8621    2.2888 C   0  0  0  0  0  0  0  0  0  0  0  0
   13.1981   -9.8931    1.1291 C   0  0  0  0  0  0  0  0  0  0  0  0
   13.6519   -8.2955    0.6241 S   0  0  0  0  0  0  0  0  0  0  0  0
   11.7340   -5.5417    1.2135 N   0  0  0  0  0  0  0  0  0  0  0  0
   12.4108    0.8698    1.1039 H   0  0  0  0  0  0  0  0  0  0  0  0
   13.8351    0.4472    0.0942 H   0  0  0  0  0  0  0  0  0  0  0  0
   12.7687    1.8117   -0.3831 H   0  0  0  0  0  0  0  0  0  0  0  0
   11.8758   -0.9072   -2.7811 H   0  0  0  0  0  0  0  0  0  0  0  0
   12.4565    0.7850   -2.6208 H   0  0  0  0  0  0  0  0  0  0  0  0
   13.5228   -0.5795   -2.1435 H   0  0  0  0  0  0  0  0  0  0  0  0
    9.8499   -0.3541   -1.3946 H   0  0  0  0  0  0  0  0  0  0  0  0
   10.0582    0.4100    0.2176 H   0  0  0  0  0  0  0  0  0  0  0  0
   10.4333    1.3403   -1.2725 H   0  0  0  0  0  0  0  0  0  0  0  0
   10.0818   -2.1185   -1.2216 H   0  0  0  0  0  0  0  0  0  0  0  0
    9.9671   -4.3950   -0.3047 H   0  0  0  0  0  0  0  0  0  0  0  0
   13.6602   -1.3799    0.9931 H   0  0  0  0  0  0  0  0  0  0  0  0
   14.9626   -3.4427    1.6067 H   0  0  0  0  0  0  0  0  0  0  0  0
   15.8041   -3.3106    3.8677 H   0  0  0  0  0  0  0  0  0  0  0  0
   14.6397   -3.4252    5.2307 H   0  0  0  0  0  0  0  0  0  0  0  0
   15.9688   -5.5548    4.8411 H   0  0  0  0  0  0  0  0  0  0  0  0
   14.1901   -5.7804    4.7308 H   0  0  0  0  0  0  0  0  0  0  0  0
   16.2078   -5.5952    2.4450 H   0  0  0  0  0  0  0  0  0  0  0  0
   15.1828   -6.9972    2.9039 H   0  0  0  0  0  0  0  0  0  0  0  0
   14.4347   -5.6543    0.8635 H   0  0  0  0  0  0  0  0  0  0  0  0
   12.4299   -5.8612    3.1673 H   0  0  0  0  0  0  0  0  0  0  0  0
   11.6533   -8.3419    3.6297 H   0  0  0  0  0  0  0  0  0  0  0  0
   12.0701  -10.7441    2.7877 H   0  0  0  0  0  0  0  0  0  0  0  0
   13.4701  -10.7971    0.6045 H   0  0  0  0  0  0  0  0  0  0  0  0
   10.8463   -5.6474    1.6616 H   0  0  0  0  0  0  0  0  0  0  0  0
  1  2  1  0  0  0  0
  2  3  1  0  0  0  0
  2  4  1  0  0  0  0
  2  5  1  0  0  0  0
  5  6  2  0  0  0  0
  5 10  1  0  0  0  0
  6  7  1  0  0  0  0
  7  8  2  0  0  0  0
  8  9  1  0  0  0  0
  8 23  1  0  0  0  0
  9 10  2  0  0  0  0
  9 11  1  0  0  0  0
 11 12  1  0  0  0  0
 11 16  1  0  0  0  0
 12 13  1  0  0  0  0
 13 14  1  0  0  0  0
 14 15  1  0  0  0  0
 15 16  1  0  0  0  0
 16 17  1  0  0  0  0
 17 18  1  0  0  0  0
 17 23  1  0  0  0  0
 18 19  2  0  0  0  0
 18 22  1  0  0  0  0
 19 20  1  0  0  0  0
 20 21  2  0  0  0  0
 21 22  1  0  0  0  0
  1 24  1  0  0  0  0
  1 25  1  0  0  0  0
  1 26  1  0  0  0  0
  3 27  1  0  0  0  0
  3 28  1  0  0  0  0
  3 29  1  0  0  0  0
  4 30  1  0  0  0  0
  4 31  1  0  0  0  0
  4 32  1  0  0  0  0
  6 33  1  0  0  0  0
  7 34  1  0  0  0  0
 10 35  1  0  0  0  0
 11 36  1  0  0  0  0
 13 37  1  0  0  0  0
 13 38  1  0  0  0  0
 14 39  1  0  0  0  0
 14 40  1  0  0  0  0
 15 41  1  0  0  0  0
 15 42  1  0  0  0  0
 16 43  1  0  0  0  0
 17 44  1  0  0  0  0
 19 45  1  0  0  0  0
 20 46  1  0  0  0  0
 21 47  1  0  0  0  0
 23 48  1  0  0  0  0
M  END
> <ID>
CHEMBL1078998

> <IC50[nM]>
25

$$$$
CHEMBL1078998
  -OEChem-05192314313D
 Structure written by MMmdl.
 48 51  0     1  0  0  0  0  0999 V2000
   12.7976    0.8124    0.0757 C   0  0  0  0  0  0  0  0  0  0  0  0
   11.9223   -0.1613   -0.7525 C   0  0  0  0  0  0  0  0  0  0  0  0
   12.4837   -0.2199   -2.1743 C   0  0  0  0  0  0  0  0  0  0  0  0
   10.4601    0.3453   -0.8043 C   0  0  0  0  0  0  0  0  0  0  0  0
   11.8888   -1.5853   -0.1835 C   0  0  0  0  0  0  0  0  0  0  0  0
   10.8508   -2.4597   -0.5444 C   0  0  0  0  0  0  0  0  0  0  0  0
   10.7949   -3.7505   -0.0484 C   0  0  0  0  0  0  0  0  0  0  0  0
   11.8123   -4.2146    0.7836 C   0  0  0  0  0  0  0  0  0  0  0  0
   12.8780   -3.3664    1.1426 C   0  0  0  0  0  0  0  0  0  0  0  0
   12.8759   -2.0519    0.6772 C   0  0  0  0  0  0  0  0  0  0  0  0
   14.0261   -3.8755    1.9883 C   0  0  1  0  0  0  0  0  0  0  0  0
   13.8055   -3.4421    3.3329 O   0  0  0  0  0  0  0  0  0  0  0  0
   14.8759   -3.7853    4.2185 C   0  0  0  0  0  0  0  0  0  0  0  0
   15.0685   -5.3210    4.2539 C   0  0  0  0  0  0  0  0  0  0  0  0
   15.2293   -5.8998    2.8448 C   0  0  0  0  0  0  0  0  0  0  0  0
   14.1243   -5.4049    1.8889 C   0  0  1  0  0  0  0  0  0  0  0  0
   12.7346   -6.0749    2.1322 C   0  0  2  0  0  0  0  0  0  0  0  0
   12.7930   -7.5766    1.9454 C   0  0  0  0  0  0  0  0  0  0  0  0
   12.2219   -8.5635    2.7386 C   0  0  0  0  0  0  0  0  0  0  0  0
   12.4438   -9.8621    2.2888 C   0  0  0  0  0  0  0  0  0  0  0  0
   13.1981   -9.8931    1.1291 C   0  0  0  0  0  0  0  0  0  0  0  0
   13.6519   -8.2955    0.6241 S   0  0  0  0  0  0  0  0  0  0  0  0
   11.7340   -5.5417    1.2135 N   0  0  0  0  0  0  0  0  0  0  0  0
   12.4108    0.8698    1.1039 H   0  0  0  0  0  0  0  0  0  0  0  0
   13.8351    0.4472    0.0942 H   0  0  0  0  0  0  0  0  0  0  0  0
   12.7687    1.8117   -0.3831 H   0  0  0  0  0  0  0  0  0  0  0  0
   11.8758   -0.9072   -2.7811 H   0  0  0  0  0  0  0  0  0  0  0  0
   12.4565    0.7850   -2.6208 H   0  0  0  0  0  0  0  0  0  0  0  0
   13.5228   -0.5795   -2.1435 H   0  0  0  0  0  0  0  0  0  0  0  0
    9.8499   -0.3541   -1.3946 H   0  0  0  0  0  0  0  0  0  0  0  0
   10.0582    0.4100    0.2176 H   0  0  0  0  0  0  0  0  0  0  0  0
   10.4333    1.3403   -1.2725 H   0  0  0  0  0  0  0  0  0  0  0  0
   11.2995   -1.2327    0.6758 H   0  0  0  0  0  0  0  0  0  0  0  0
   10.0818   -2.1185   -1.2216 H   0  0  0  0  0  0  0  0  0  0  0  0
    9.9671   -4.3950   -0.3047 H   0  0  0  0  0  0  0  0  0  0  0  0
   13.6602   -1.3799    0.9931 H   0  0  0  0  0  0  0  0  0  0  0  0
   14.9626   -3.4427    1.6067 H   0  0  0  0  0  0  0  0  0  0  0  0
   15.8041   -3.3106    3.8677 H   0  0  0  0  0  0  0  0  0  0  0  0
   14.6397   -3.4252    5.2307 H   0  0  0  0  0  0  0  0  0  0  0  0
   15.9688   -5.5548    4.8411 H   0  0  0  0  0  0  0  0  0  0  0  0
   14.1901   -5.7804    4.7308 H   0  0  0  0  0  0  0  0  0  0  0  0
   16.2078   -5.5952    2.4450 H   0  0  0  0  0  0  0  0  0  0  0  0
   15.1828   -6.9972    2.9039 H   0  0  0  0  0  0  0  0  0  0  0  0
   14.4347   -5.6543    0.8635 H   0  0  0  0  0  0  0  0  0  0  0  0
   12.4299   -5.8612    3.1673 H   0  0  0  0  0  0  0  0  0  0  0  0
   11.6533   -8.3419    3.6297 H   0  0  0  0  0  0  0  0  0  0  0  0
   12.0701  -10.7441    2.7877 H   0  0  0  0  0  0  0  0  0  0  0  0
   13.4701  -10.7971    0.6045 H   0  0  0  0  0  0  0  0  0  0  0  0
  1  2  1  0  0  0  0
  2  3  1  0  0  0  0
  2  4  1  0  0  0  0
  2  5  1  0  0  0  0
  5  6  1  0  0  0  0
  5 10  1  0  0  0  0
  6  7  2  0  0  0  0
  7  8  1  0  0  0  0
  8  9  1  0  0  0  0
  8 23  2  0  0  0  0
  9 10  2  0  0  0  0
  9 11  1  0  0  0  0
 11 12  1  0  0  0  0
 11 16  1  0  0  0  0
 12 13  1  0  0  0  0
 13 14  1  0  0  0  0
 14 15  1  0  0  0  0
 15 16  1  0  0  0  0
 16 17  1  0  0  0  0
 17 18  1  0  0  0  0
 17 23  1  0  0  0  0
 18 19  2  0  0  0  0
 18 22  1  0  0  0  0
 19 20  1  0  0  0  0
 20 21  2  0  0  0  0
 21 22  1  0  0  0  0
  1 24  1  0  0  0  0
  1 25  1  0  0  0  0
  1 26  1  0  0  0  0
  3 27  1  0  0  0  0
  3 28  1  0  0  0  0
  3 29  1  0  0  0  0
  4 30  1  0  0  0  0
  4 31  1  0  0  0  0
  4 32  1  0  0  0  0
  5 33  1  0  0  0  0
  6 34  1  0  0  0  0
  7 35  1  0  0  0  0
 10 36  1  0  0  0  0
 11 37  1  0  0  0  0
 13 38  1  0  0  0  0
 13 39  1  0  0  0  0
 14 40  1  0  0  0  0
 14 41  1  0  0  0  0
 15 42  1  0  0  0  0
 15 43  1  0  0  0  0
 16 44  1  0  0  0  0
 17 45  1  0  0  0  0
 19 46  1  0  0  0  0
 20 47  1  0  0  0  0
 21 48  1  0  0  0  0
M  END
> <ID>
CHEMBL1078998

> <IC50[nM]>
25

$$$$
CHEMBL1078998
  -OEChem-05192314313D
 Structure written by MMmdl.
 48 51  0     1  0  0  0  0  0999 V2000
   12.7976    0.8124    0.0757 C   0  0  0  0  0  0  0  0  0  0  0  0
   11.9223   -0.1613   -0.7525 C   0  0  0  0  0  0  0  0  0  0  0  0
   12.4837   -0.2199   -2.1743 C   0  0  0  0  0  0  0  0  0  0  0  0
   10.4601    0.3453   -0.8043 C   0  0  0  0  0  0  0  0  0  0  0  0
   11.8888   -1.5853   -0.1835 C   0  0  0  0  0  0  0  0  0  0  0  0
   10.8508   -2.4597   -0.5444 C   0  0  0  0  0  0  0  0  0  0  0  0
   10.7949   -3.7505   -0.0484 C   0  0  0  0  0  0  0  0  0  0  0  0
   11.8123   -4.2146    0.7836 C   0  0  0  0  0  0  0  0  0  0  0  0
   12.8780   -3.3664    1.1426 C   0  0  0  0  0  0  0  0  0  0  0  0
   12.8759   -2.0519    0.6772 C   0  0  0  0  0  0  0  0  0  0  0  0
   14.0261   -3.8755    1.9883 C   0  0  1  0  0  0  0  0  0  0  0  0
   13.8055   -3.4421    3.3329 O   0  0  0  0  0  0  0  0  0  0  0  0
   14.8759   -3.7853    4.2185 C   0  0  0  0  0  0  0  0  0  0  0  0
   15.0685   -5.3210    4.2539 C   0  0  0  0  0  0  0  0  0  0  0  0
   15.2293   -5.8998    2.8448 C   0  0  0  0  0  0  0  0  0  0  0  0
   14.1243   -5.4049    1.8889 C   0  0  1  0  0  0  0  0  0  0  0  0
   12.7346   -6.0749    2.1322 C   0  0  2  0  0  0  0  0  0  0  0  0
   12.7930   -7.5766    1.9454 C   0  0  0  0  0  0  0  0  0  0  0  0
   12.2219   -8.5635    2.7386 C   0  0  0  0  0  0  0  0  0  0  0  0
   12.4438   -9.8621    2.2888 C   0  0  0  0  0  0  0  0  0  0  0  0
   13.1981   -9.8931    1.1291 C   0  0  0  0  0  0  0  0  0  0  0  0
   13.6519   -8.2955    0.6241 S   0  0  0  0  0  0  0  0  0  0  0  0
   11.7340   -5.5417    1.2135 N   0  0  0  0  0  0  0  0  0  0  0  0
   12.4108    0.8698    1.1039 H   0  0  0  0  0  0  0  0  0  0  0  0
   13.8351    0.4472    0.0942 H   0  0  0  0  0  0  0  0  0  0  0  0
   12.7687    1.8117   -0.3831 H   0  0  0  0  0  0  0  0  0  0  0  0
   11.8758   -0.9072   -2.7811 H   0  0  0  0  0  0  0  0  0  0  0  0
   12.4565    0.7850   -2.6208 H   0  0  0  0  0  0  0  0  0  0  0  0
   13.5228   -0.5795   -2.1435 H   0  0  0  0  0  0  0  0  0  0  0  0
    9.8499   -0.3541   -1.3946 H   0  0  0  0  0  0  0  0  0  0  0  0
   10.0582    0.4100    0.2176 H   0  0  0  0  0  0  0  0  0  0  0  0
   10.4333    1.3403   -1.2725 H   0  0  0  0  0  0  0  0  0  0  0  0
   10.0818   -2.1185   -1.2216 H   0  0  0  0  0  0  0  0  0  0  0  0
    9.9671   -4.3950   -0.3047 H   0  0  0  0  0  0  0  0  0  0  0  0
   12.3373   -3.0559    2.0488 H   0  0  0  0  0  0  0  0  0  0  0  0
   13.6602   -1.3799    0.9931 H   0  0  0  0  0  0  0  0  0  0  0  0
   14.9626   -3.4427    1.6067 H   0  0  0  0  0  0  0  0  0  0  0  0
   15.8041   -3.3106    3.8677 H   0  0  0  0  0  0  0  0  0  0  0  0
   14.6397   -3.4252    5.2307 H   0  0  0  0  0  0  0  0  0  0  0  0
   15.9688   -5.5548    4.8411 H   0  0  0  0  0  0  0  0  0  0  0  0
   14.1901   -5.7804    4.7308 H   0  0  0  0  0  0  0  0  0  0  0  0
   16.2078   -5.5952    2.4450 H   0  0  0  0  0  0  0  0  0  0  0  0
   15.1828   -6.9972    2.9039 H   0  0  0  0  0  0  0  0  0  0  0  0
   14.4347   -5.6543    0.8635 H   0  0  0  0  0  0  0  0  0  0  0  0
   12.4299   -5.8612    3.1673 H   0  0  0  0  0  0  0  0  0  0  0  0
   11.6533   -8.3419    3.6297 H   0  0  0  0  0  0  0  0  0  0  0  0
   12.0701  -10.7441    2.7877 H   0  0  0  0  0  0  0  0  0  0  0  0
   13.4701  -10.7971    0.6045 H   0  0  0  0  0  0  0  0  0  0  0  0
  1  2  1  0  0  0  0
  2  3  1  0  0  0  0
  2  4  1  0  0  0  0
  2  5  1  0  0  0  0
  5  6  1  0  0  0  0
  5 10  2  0  0  0  0
  6  7  2  0  0  0  0
  7  8  1  0  0  0  0
  8  9  1  0  0  0  0
  8 23  2  0  0  0  0
  9 10  1  0  0  0  0
  9 11  1  0  0  0  0
 11 12  1  0  0  0  0
 11 16  1  0  0  0  0
 12 13  1  0  0  0  0
 13 14  1  0  0  0  0
 14 15  1  0  0  0  0
 15 16  1  0  0  0  0
 16 17  1  0  0  0  0
 17 18  1  0  0  0  0
 17 23  1  0  0  0  0
 18 19  2  0  0  0  0
 18 22  1  0  0  0  0
 19 20  1  0  0  0  0
 20 21  2  0  0  0  0
 21 22  1  0  0  0  0
  1 24  1  0  0  0  0
  1 25  1  0  0  0  0
  1 26  1  0  0  0  0
  3 27  1  0  0  0  0
  3 28  1  0  0  0  0
  3 29  1  0  0  0  0
  4 30  1  0  0  0  0
  4 31  1  0  0  0  0
  4 32  1  0  0  0  0
  6 33  1  0  0  0  0
  7 34  1  0  0  0  0
  9 35  1  0  0  0  0
 10 36  1  0  0  0  0
 11 37  1  0  0  0  0
 13 38  1  0  0  0  0
 13 39  1  0  0  0  0
 14 40  1  0  0  0  0
 14 41  1  0  0  0  0
 15 42  1  0  0  0  0
 15 43  1  0  0  0  0
 16 44  1  0  0  0  0
 17 45  1  0  0  0  0
 19 46  1  0  0  0  0
 20 47  1  0  0  0  0
 21 48  1  0  0  0  0
M  END
> <ID>
CHEMBL1078998

> <IC50[nM]>
25

$$$$
CHEMBL1078998
  -OEChem-05192314313D
 Structure written by MMmdl.
 48 51  0     1  0  0  0  0  0999 V2000
   12.7976    0.8124    0.0757 C   0  0  0  0  0  0  0  0  0  0  0  0
   11.9223   -0.1613   -0.7525 C   0  0  0  0  0  0  0  0  0  0  0  0
   12.4837   -0.2199   -2.1743 C   0  0  0  0  0  0  0  0  0  0  0  0
   10.4601    0.3453   -0.8043 C   0  0  0  0  0  0  0  0  0  0  0  0
   11.8888   -1.5853   -0.1835 C   0  0  0  0  0  0  0  0  0  0  0  0
   10.8508   -2.4597   -0.5444 C   0  0  0  0  0  0  0  0  0  0  0  0
   10.7949   -3.7505   -0.0484 C   0  0  0  0  0  0  0  0  0  0  0  0
   11.8123   -4.2146    0.7836 C   0  0  0  0  0  0  0  0  0  0  0  0
   12.8780   -3.3664    1.1426 C   0  0  0  0  0  0  0  0  0  0  0  0
   12.8759   -2.0519    0.6772 C   0  0  0  0  0  0  0  0  0  0  0  0
   14.0261   -3.8755    1.9883 C   0  0  1  0  0  0  0  0  0  0  0  0
   13.8055   -3.4421    3.3329 O   0  0  0  0  0  0  0  0  0  0  0  0
   14.8759   -3.7853    4.2185 C   0  0  0  0  0  0  0  0  0  0  0  0
   15.0685   -5.3210    4.2539 C   0  0  0  0  0  0  0  0  0  0  0  0
   15.2293   -5.8998    2.8448 C   0  0  0  0  0  0  0  0  0  0  0  0
   14.1243   -5.4049    1.8889 C   0  0  1  0  0  0  0  0  0  0  0  0
   12.7346   -6.0749    2.1322 C   0  0  2  0  0  0  0  0  0  0  0  0
   12.7930   -7.5766    1.9454 C   0  0  0  0  0  0  0  0  0  0  0  0
   12.2219   -8.5635    2.7386 C   0  0  0  0  0  0  0  0  0  0  0  0
   12.4438   -9.8621    2.2888 C   0  0  0  0  0  0  0  0  0  0  0  0
   13.1981   -9.8931    1.1291 C   0  0  0  0  0  0  0  0  0  0  0  0
   13.6519   -8.2955    0.6241 S   0  0  0  0  0  0  0  0  0  0  0  0
   11.7340   -5.5417    1.2135 N   0  0  0  0  0  0  0  0  0  0  0  0
   12.4108    0.8698    1.1039 H   0  0  0  0  0  0  0  0  0  0  0  0
   13.8351    0.4472    0.0942 H   0  0  0  0  0  0  0  0  0  0  0  0
   12.7687    1.8117   -0.3831 H   0  0  0  0  0  0  0  0  0  0  0  0
   11.8758   -0.9072   -2.7811 H   0  0  0  0  0  0  0  0  0  0  0  0
   12.4565    0.7850   -2.6208 H   0  0  0  0  0  0  0  0  0  0  0  0
   13.5228   -0.5795   -2.1435 H   0  0  0  0  0  0  0  0  0  0  0  0
    9.8499   -0.3541   -1.3946 H   0  0  0  0  0  0  0  0  0  0  0  0
   10.0582    0.4100    0.2176 H   0  0  0  0  0  0  0  0  0  0  0  0
   10.4333    1.3403   -1.2725 H   0  0  0  0  0  0  0  0  0  0  0  0
   10.0818   -2.1185   -1.2216 H   0  0  0  0  0  0  0  0  0  0  0  0
    9.8560   -3.8342    0.5185 H   0  0  0  0  0  0  0  0  0  0  0  0
   10.7602   -4.4248   -0.9168 H   0  0  0  0  0  0  0  0  0  0  0  0
   13.6602   -1.3799    0.9931 H   0  0  0  0  0  0  0  0  0  0  0  0
   14.9626   -3.4427    1.6067 H   0  0  0  0  0  0  0  0  0  0  0  0
   15.8041   -3.3106    3.8677 H   0  0  0  0  0  0  0  0  0  0  0  0
   14.6397   -3.4252    5.2307 H   0  0  0  0  0  0  0  0  0  0  0  0
   15.9688   -5.5548    4.8411 H   0  0  0  0  0  0  0  0  0  0  0  0
   14.1901   -5.7804    4.7308 H   0  0  0  0  0  0  0  0  0  0  0  0
   16.2078   -5.5952    2.4450 H   0  0  0  0  0  0  0  0  0  0  0  0
   15.1828   -6.9972    2.9039 H   0  0  0  0  0  0  0  0  0  0  0  0
   14.4347   -5.6543    0.8635 H   0  0  0  0  0  0  0  0  0  0  0  0
   12.4299   -5.8612    3.1673 H   0  0  0  0  0  0  0  0  0  0  0  0
   11.6533   -8.3419    3.6297 H   0  0  0  0  0  0  0  0  0  0  0  0
   12.0701  -10.7441    2.7877 H   0  0  0  0  0  0  0  0  0  0  0  0
   13.4701  -10.7971    0.6045 H   0  0  0  0  0  0  0  0  0  0  0  0
  1  2  1  0  0  0  0
  2  3  1  0  0  0  0
  2  4  1  0  0  0  0
  2  5  1  0  0  0  0
  5  6  2  0  0  0  0
  5 10  1  0  0  0  0
  6  7  1  0  0  0  0
  7  8  1  0  0  0  0
  8  9  1  0  0  0  0
  8 23  2  0  0  0  0
  9 10  2  0  0  0  0
  9 11  1  0  0  0  0
 11 12  1  0  0  0  0
 11 16  1  0  0  0  0
 12 13  1  0  0  0  0
 13 14  1  0  0  0  0
 14 15  1  0  0  0  0
 15 16  1  0  0  0  0
 16 17  1  0  0  0  0
 17 18  1  0  0  0  0
 17 23  1  0  0  0  0
 18 19  2  0  0  0  0
 18 22  1  0  0  0  0
 19 20  1  0  0  0  0
 20 21  2  0  0  0  0
 21 22  1  0  0  0  0
  1 24  1  0  0  0  0
  1 25  1  0  0  0  0
  1 26  1  0  0  0  0
  3 27  1  0  0  0  0
  3 28  1  0  0  0  0
  3 29  1  0  0  0  0
  4 30  1  0  0  0  0
  4 31  1  0  0  0  0
  4 32  1  0  0  0  0
  6 33  1  0  0  0  0
  7 34  1  0  0  0  0
  7 35  1  0  0  0  0
 10 36  1  0  0  0  0
 11 37  1  0  0  0  0
 13 38  1  0  0  0  0
 13 39  1  0  0  0  0
 14 40  1  0  0  0  0
 14 41  1  0  0  0  0
 15 42  1  0  0  0  0
 15 43  1  0  0  0  0
 16 44  1  0  0  0  0
 17 45  1  0  0  0  0
 19 46  1  0  0  0  0
 20 47  1  0  0  0  0
 21 48  1  0  0  0  0
M  END
> <ID>
CHEMBL1078998

> <IC50[nM]>
25

$$$$
