CHEMBL1083836
  -OEChem-05192314313D
 Structure written by MMmdl.
 54 58  0     1  0  0  0  0  0999 V2000
   15.2821   -4.6350    7.5364 C   0  0  0  0  0  0  0  0  0  0  0  0
   14.1932   -3.9714    6.6802 N   0  0  0  0  0  0  0  0  0  0  0  0
   14.7173   -3.0545    5.5540 C   0  0  0  0  0  0  0  0  0  0  0  0
   14.9175   -3.7786    4.1872 C   0  0  1  0  0  0  0  0  0  0  0  0
   15.0874   -5.3228    4.2360 C   0  0  0  0  0  0  0  0  0  0  0  0
   15.2206   -5.9197    2.8310 C   0  0  0  0  0  0  0  0  0  0  0  0
   14.1088   -5.4312    1.8792 C   0  0  1  0  0  0  0  0  0  0  0  0
   12.7176   -6.0847    2.1226 C   0  0  2  0  0  0  0  0  0  0  0  0
   12.7637   -7.6040    2.0348 C   0  0  0  0  0  0  0  0  0  0  0  0
   13.2571   -8.2154    0.8775 C   0  0  0  0  0  0  0  0  0  0  0  0
   13.3310   -9.5999    0.7947 C   0  0  0  0  0  0  0  0  0  0  0  0
   12.9090  -10.3740    1.8712 C   0  0  0  0  0  0  0  0  0  0  0  0
   12.4010   -9.7717    3.0201 C   0  0  0  0  0  0  0  0  0  0  0  0
   12.3216   -8.3846    3.1028 C   0  0  0  0  0  0  0  0  0  0  0  0
   11.7445   -5.5529    1.1675 N   0  0  0  0  0  0  0  0  0  0  0  0
   11.7783   -4.2163    0.7637 C   0  0  0  0  0  0  0  0  0  0  0  0
   10.7564   -3.7313   -0.0600 C   0  0  0  0  0  0  0  0  0  0  0  0
   10.7840   -2.4218   -0.5217 C   0  0  0  0  0  0  0  0  0  0  0  0
   11.8218   -1.5818   -0.1229 C   0  0  0  0  0  0  0  0  0  0  0  0
   11.8894   -0.1791   -0.6884 C   0  0  0  0  0  0  0  0  0  0  0  0
   12.9842    0.7528   -0.3261 C   0  0  0  0  0  0  0  0  0  0  0  0
   12.9393    0.1563   -1.7215 C   0  0  0  0  0  0  0  0  0  0  0  0
   12.8260   -2.0751    0.7222 C   0  0  0  0  0  0  0  0  0  0  0  0
   12.8412   -3.3893    1.1509 C   0  0  0  0  0  0  0  0  0  0  0  0
   14.0126   -3.8975    1.9757 C   0  0  1  0  0  0  0  0  0  0  0  0
   13.8215   -3.4695    3.3243 O   0  0  0  0  0  0  0  0  0  0  0  0
   14.8113   -5.2642    8.3061 H   0  0  0  0  0  0  0  0  0  0  0  0
   15.9234   -5.2580    6.8955 H   0  0  0  0  0  0  0  0  0  0  0  0
   15.8919   -3.8580    8.0206 H   0  0  0  0  0  0  0  0  0  0  0  0
   13.6443   -4.6947    6.2612 H   0  0  0  0  0  0  0  0  0  0  0  0
   13.9957   -2.2369    5.4097 H   0  0  0  0  0  0  0  0  0  0  0  0
   15.6852   -2.6378    5.8696 H   0  0  0  0  0  0  0  0  0  0  0  0
   15.8366   -3.3699    3.7419 H   0  0  0  0  0  0  0  0  0  0  0  0
   15.9917   -5.5645    4.8138 H   0  0  0  0  0  0  0  0  0  0  0  0
   14.2084   -5.7633    4.7293 H   0  0  0  0  0  0  0  0  0  0  0  0
   16.1961   -5.6288    2.4142 H   0  0  0  0  0  0  0  0  0  0  0  0
   15.1659   -7.0158    2.9057 H   0  0  0  0  0  0  0  0  0  0  0  0
   14.4157   -5.6819    0.8531 H   0  0  0  0  0  0  0  0  0  0  0  0
   12.3975   -5.8137    3.1395 H   0  0  0  0  0  0  0  0  0  0  0  0
   13.5818   -7.6086    0.0452 H   0  0  0  0  0  0  0  0  0  0  0  0
   13.7131  -10.0720   -0.0984 H   0  0  0  0  0  0  0  0  0  0  0  0
   12.9758  -11.4505    1.8156 H   0  0  0  0  0  0  0  0  0  0  0  0
   12.0686  -10.3815    3.8472 H   0  0  0  0  0  0  0  0  0  0  0  0
   11.9200   -7.9154    3.9888 H   0  0  0  0  0  0  0  0  0  0  0  0
   11.8350   -6.1017    0.3365 H   0  0  0  0  0  0  0  0  0  0  0  0
    9.9396   -4.3805   -0.3389 H   0  0  0  0  0  0  0  0  0  0  0  0
   10.0103   -2.0588   -1.1820 H   0  0  0  0  0  0  0  0  0  0  0  0
   10.9108    0.2933   -0.8589 H   0  0  0  0  0  0  0  0  0  0  0  0
   12.7690    1.8215   -0.1789 H   0  0  0  0  0  0  0  0  0  0  0  0
   13.7638    0.4348    0.3818 H   0  0  0  0  0  0  0  0  0  0  0  0
   13.6790   -0.5992   -2.0249 H   0  0  0  0  0  0  0  0  0  0  0  0
   12.6842    0.7874   -2.5856 H   0  0  0  0  0  0  0  0  0  0  0  0
   13.6109   -1.4086    1.0479 H   0  0  0  0  0  0  0  0  0  0  0  0
   14.9405   -3.4651    1.5731 H   0  0  0  0  0  0  0  0  0  0  0  0
  1  2  1  0  0  0  0
  2  3  1  0  0  0  0
  3  4  1  0  0  0  0
  4  5  1  0  0  0  0
  4 26  1  0  0  0  0
  5  6  1  0  0  0  0
  6  7  1  0  0  0  0
  7  8  1  0  0  0  0
  7 25  1  0  0  0  0
  8  9  1  0  0  0  0
  8 15  1  0  0  0  0
  9 10  2  0  0  0  0
  9 14  1  0  0  0  0
 10 11  1  0  0  0  0
 11 12  2  0  0  0  0
 12 13  1  0  0  0  0
 13 14  2  0  0  0  0
 15 16  1  0  0  0  0
 16 17  2  0  0  0  0
 16 24  1  0  0  0  0
 17 18  1  0  0  0  0
 18 19  2  0  0  0  0
 19 20  1  0  0  0  0
 19 23  1  0  0  0  0
 20 21  1  0  0  0  0
 20 22  1  0  0  0  0
 21 22  1  0  0  0  0
 23 24  2  0  0  0  0
 24 25  1  0  0  0  0
 25 26  1  0  0  0  0
  1 27  1  0  0  0  0
  1 28  1  0  0  0  0
  1 29  1  0  0  0  0
  2 30  1  0  0  0  0
  3 31  1  0  0  0  0
  3 32  1  0  0  0  0
  4 33  1  0  0  0  0
  5 34  1  0  0  0  0
  5 35  1  0  0  0  0
  6 36  1  0  0  0  0
  6 37  1  0  0  0  0
  7 38  1  0  0  0  0
  8 39  1  0  0  0  0
 10 40  1  0  0  0  0
 11 41  1  0  0  0  0
 12 42  1  0  0  0  0
 13 43  1  0  0  0  0
 14 44  1  0  0  0  0
 15 45  1  0  0  0  0
 17 46  1  0  0  0  0
 18 47  1  0  0  0  0
 20 48  1  0  0  0  0
 21 49  1  0  0  0  0
 21 50  1  0  0  0  0
 22 51  1  0  0  0  0
 22 52  1  0  0  0  0
 23 53  1  0  0  0  0
 25 54  1  0  0  0  0
M  END
> <ID>
CHEMBL1083836

> <IC50[nM]>
11

$$$$
CHEMBL1083836
  -OEChem-05192314313D
 Structure written by MMmdl.
 54 58  0     1  0  0  0  0  0999 V2000
   15.2821   -4.6350    7.5364 C   0  0  0  0  0  0  0  0  0  0  0  0
   14.1932   -3.9714    6.6802 N   0  0  0  0  0  0  0  0  0  0  0  0
   14.7173   -3.0545    5.5540 C   0  0  0  0  0  0  0  0  0  0  0  0
   14.9175   -3.7786    4.1872 C   0  0  1  0  0  0  0  0  0  0  0  0
   15.0874   -5.3228    4.2360 C   0  0  0  0  0  0  0  0  0  0  0  0
   15.2206   -5.9197    2.8310 C   0  0  0  0  0  0  0  0  0  0  0  0
   14.1088   -5.4312    1.8792 C   0  0  1  0  0  0  0  0  0  0  0  0
   12.7176   -6.0847    2.1226 C   0  0  2  0  0  0  0  0  0  0  0  0
   12.7637   -7.6040    2.0348 C   0  0  0  0  0  0  0  0  0  0  0  0
   13.2571   -8.2154    0.8775 C   0  0  0  0  0  0  0  0  0  0  0  0
   13.3310   -9.5999    0.7947 C   0  0  0  0  0  0  0  0  0  0  0  0
   12.9090  -10.3740    1.8712 C   0  0  0  0  0  0  0  0  0  0  0  0
   12.4010   -9.7717    3.0201 C   0  0  0  0  0  0  0  0  0  0  0  0
   12.3216   -8.3846    3.1028 C   0  0  0  0  0  0  0  0  0  0  0  0
   11.7445   -5.5529    1.1675 N   0  0  0  0  0  0  0  0  0  0  0  0
   11.7783   -4.2163    0.7637 C   0  0  0  0  0  0  0  0  0  0  0  0
   10.7564   -3.7313   -0.0600 C   0  0  0  0  0  0  0  0  0  0  0  0
   10.7840   -2.4218   -0.5217 C   0  0  0  0  0  0  0  0  0  0  0  0
   11.8218   -1.5818   -0.1229 C   0  0  0  0  0  0  0  0  0  0  0  0
   11.8894   -0.1791   -0.6884 C   0  0  0  0  0  0  0  0  0  0  0  0
   12.9842    0.7528   -0.3261 C   0  0  0  0  0  0  0  0  0  0  0  0
   12.9393    0.1563   -1.7215 C   0  0  0  0  0  0  0  0  0  0  0  0
   12.8260   -2.0751    0.7222 C   0  0  0  0  0  0  0  0  0  0  0  0
   12.8412   -3.3893    1.1509 C   0  0  0  0  0  0  0  0  0  0  0  0
   14.0126   -3.8975    1.9757 C   0  0  1  0  0  0  0  0  0  0  0  0
   13.8215   -3.4695    3.3243 O   0  0  0  0  0  0  0  0  0  0  0  0
   14.8113   -5.2642    8.3061 H   0  0  0  0  0  0  0  0  0  0  0  0
   15.9234   -5.2580    6.8955 H   0  0  0  0  0  0  0  0  0  0  0  0
   15.8919   -3.8580    8.0206 H   0  0  0  0  0  0  0  0  0  0  0  0
   13.6443   -4.6947    6.2612 H   0  0  0  0  0  0  0  0  0  0  0  0
   13.9957   -2.2369    5.4097 H   0  0  0  0  0  0  0  0  0  0  0  0
   15.6852   -2.6378    5.8696 H   0  0  0  0  0  0  0  0  0  0  0  0
   15.8366   -3.3699    3.7419 H   0  0  0  0  0  0  0  0  0  0  0  0
   15.9917   -5.5645    4.8138 H   0  0  0  0  0  0  0  0  0  0  0  0
   14.2084   -5.7633    4.7293 H   0  0  0  0  0  0  0  0  0  0  0  0
   16.1961   -5.6288    2.4142 H   0  0  0  0  0  0  0  0  0  0  0  0
   15.1659   -7.0158    2.9057 H   0  0  0  0  0  0  0  0  0  0  0  0
   14.4157   -5.6819    0.8531 H   0  0  0  0  0  0  0  0  0  0  0  0
   12.3975   -5.8137    3.1395 H   0  0  0  0  0  0  0  0  0  0  0  0
   13.5818   -7.6086    0.0452 H   0  0  0  0  0  0  0  0  0  0  0  0
   13.7131  -10.0720   -0.0984 H   0  0  0  0  0  0  0  0  0  0  0  0
   12.9758  -11.4505    1.8156 H   0  0  0  0  0  0  0  0  0  0  0  0
   12.0686  -10.3815    3.8472 H   0  0  0  0  0  0  0  0  0  0  0  0
   11.9200   -7.9154    3.9888 H   0  0  0  0  0  0  0  0  0  0  0  0
    9.9396   -4.3805   -0.3389 H   0  0  0  0  0  0  0  0  0  0  0  0
   10.0103   -2.0588   -1.1820 H   0  0  0  0  0  0  0  0  0  0  0  0
   11.2367   -1.2293    0.7393 H   0  0  0  0  0  0  0  0  0  0  0  0
   10.9108    0.2933   -0.8589 H   0  0  0  0  0  0  0  0  0  0  0  0
   12.7690    1.8215   -0.1789 H   0  0  0  0  0  0  0  0  0  0  0  0
   13.7638    0.4348    0.3818 H   0  0  0  0  0  0  0  0  0  0  0  0
   13.6790   -0.5992   -2.0249 H   0  0  0  0  0  0  0  0  0  0  0  0
   12.6842    0.7874   -2.5856 H   0  0  0  0  0  0  0  0  0  0  0  0
   13.6109   -1.4086    1.0479 H   0  0  0  0  0  0  0  0  0  0  0  0
   14.9405   -3.4651    1.5731 H   0  0  0  0  0  0  0  0  0  0  0  0
  1  2  1  0  0  0  0
  2  3  1  0  0  0  0
  3  4  1  0  0  0  0
  4  5  1  0  0  0  0
  4 26  1  0  0  0  0
  5  6  1  0  0  0  0
  6  7  1  0  0  0  0
  7  8  1  0  0  0  0
  7 25  1  0  0  0  0
  8  9  1  0  0  0  0
  8 15  1  0  0  0  0
  9 10  2  0  0  0  0
  9 14  1  0  0  0  0
 10 11  1  0  0  0  0
 11 12  2  0  0  0  0
 12 13  1  0  0  0  0
 13 14  2  0  0  0  0
 15 16  2  0  0  0  0
 16 17  1  0  0  0  0
 16 24  1  0  0  0  0
 17 18  2  0  0  0  0
 18 19  1  0  0  0  0
 19 20  1  0  0  0  0
 19 23  1  0  0  0  0
 20 21  1  0  0  0  0
 20 22  1  0  0  0  0
 21 22  1  0  0  0  0
 23 24  2  0  0  0  0
 24 25  1  0  0  0  0
 25 26  1  0  0  0  0
  1 27  1  0  0  0  0
  1 28  1  0  0  0  0
  1 29  1  0  0  0  0
  2 30  1  0  0  0  0
  3 31  1  0  0  0  0
  3 32  1  0  0  0  0
  4 33  1  0  0  0  0
  5 34  1  0  0  0  0
  5 35  1  0  0  0  0
  6 36  1  0  0  0  0
  6 37  1  0  0  0  0
  7 38  1  0  0  0  0
  8 39  1  0  0  0  0
 10 40  1  0  0  0  0
 11 41  1  0  0  0  0
 12 42  1  0  0  0  0
 13 43  1  0  0  0  0
 14 44  1  0  0  0  0
 17 45  1  0  0  0  0
 18 46  1  0  0  0  0
 19 47  1  0  0  0  0
 20 48  1  0  0  0  0
 21 49  1  0  0  0  0
 21 50  1  0  0  0  0
 22 51  1  0  0  0  0
 22 52  1  0  0  0  0
 23 53  1  0  0  0  0
 25 54  1  0  0  0  0
M  END
> <ID>
CHEMBL1083836

> <IC50[nM]>
11

$$$$
CHEMBL1083836
  -OEChem-05192314313D
 Structure written by MMmdl.
 54 58  0     1  0  0  0  0  0999 V2000
   15.2821   -4.6350    7.5364 C   0  0  0  0  0  0  0  0  0  0  0  0
   14.1932   -3.9714    6.6802 N   0  0  0  0  0  0  0  0  0  0  0  0
   14.7173   -3.0545    5.5540 C   0  0  0  0  0  0  0  0  0  0  0  0
   14.9175   -3.7786    4.1872 C   0  0  1  0  0  0  0  0  0  0  0  0
   15.0874   -5.3228    4.2360 C   0  0  0  0  0  0  0  0  0  0  0  0
   15.2206   -5.9197    2.8310 C   0  0  0  0  0  0  0  0  0  0  0  0
   14.1088   -5.4312    1.8792 C   0  0  1  0  0  0  0  0  0  0  0  0
   12.7176   -6.0847    2.1226 C   0  0  2  0  0  0  0  0  0  0  0  0
   12.7637   -7.6040    2.0348 C   0  0  0  0  0  0  0  0  0  0  0  0
   13.2571   -8.2154    0.8775 C   0  0  0  0  0  0  0  0  0  0  0  0
   13.3310   -9.5999    0.7947 C   0  0  0  0  0  0  0  0  0  0  0  0
   12.9090  -10.3740    1.8712 C   0  0  0  0  0  0  0  0  0  0  0  0
   12.4010   -9.7717    3.0201 C   0  0  0  0  0  0  0  0  0  0  0  0
   12.3216   -8.3846    3.1028 C   0  0  0  0  0  0  0  0  0  0  0  0
   11.7445   -5.5529    1.1675 N   0  0  0  0  0  0  0  0  0  0  0  0
   11.7783   -4.2163    0.7637 C   0  0  0  0  0  0  0  0  0  0  0  0
   10.7564   -3.7313   -0.0600 C   0  0  0  0  0  0  0  0  0  0  0  0
   10.7840   -2.4218   -0.5217 C   0  0  0  0  0  0  0  0  0  0  0  0
   11.8218   -1.5818   -0.1229 C   0  0  0  0  0  0  0  0  0  0  0  0
   11.8894   -0.1791   -0.6884 C   0  0  0  0  0  0  0  0  0  0  0  0
   12.9842    0.7528   -0.3261 C   0  0  0  0  0  0  0  0  0  0  0  0
   12.9393    0.1563   -1.7215 C   0  0  0  0  0  0  0  0  0  0  0  0
   12.8260   -2.0751    0.7222 C   0  0  0  0  0  0  0  0  0  0  0  0
   12.8412   -3.3893    1.1509 C   0  0  0  0  0  0  0  0  0  0  0  0
   14.0126   -3.8975    1.9757 C   0  0  1  0  0  0  0  0  0  0  0  0
   13.8215   -3.4695    3.3243 O   0  0  0  0  0  0  0  0  0  0  0  0
   14.8113   -5.2642    8.3061 H   0  0  0  0  0  0  0  0  0  0  0  0
   15.9234   -5.2580    6.8955 H   0  0  0  0  0  0  0  0  0  0  0  0
   15.8919   -3.8580    8.0206 H   0  0  0  0  0  0  0  0  0  0  0  0
   13.6443   -4.6947    6.2612 H   0  0  0  0  0  0  0  0  0  0  0  0
   13.9957   -2.2369    5.4097 H   0  0  0  0  0  0  0  0  0  0  0  0
   15.6852   -2.6378    5.8696 H   0  0  0  0  0  0  0  0  0  0  0  0
   15.8366   -3.3699    3.7419 H   0  0  0  0  0  0  0  0  0  0  0  0
   15.9917   -5.5645    4.8138 H   0  0  0  0  0  0  0  0  0  0  0  0
   14.2084   -5.7633    4.7293 H   0  0  0  0  0  0  0  0  0  0  0  0
   16.1961   -5.6288    2.4142 H   0  0  0  0  0  0  0  0  0  0  0  0
   15.1659   -7.0158    2.9057 H   0  0  0  0  0  0  0  0  0  0  0  0
   14.4157   -5.6819    0.8531 H   0  0  0  0  0  0  0  0  0  0  0  0
   12.3975   -5.8137    3.1395 H   0  0  0  0  0  0  0  0  0  0  0  0
   13.5818   -7.6086    0.0452 H   0  0  0  0  0  0  0  0  0  0  0  0
   13.7131  -10.0720   -0.0984 H   0  0  0  0  0  0  0  0  0  0  0  0
   12.9758  -11.4505    1.8156 H   0  0  0  0  0  0  0  0  0  0  0  0
   12.0686  -10.3815    3.8472 H   0  0  0  0  0  0  0  0  0  0  0  0
   11.9200   -7.9154    3.9888 H   0  0  0  0  0  0  0  0  0  0  0  0
    9.9396   -4.3805   -0.3389 H   0  0  0  0  0  0  0  0  0  0  0  0
   10.0103   -2.0588   -1.1820 H   0  0  0  0  0  0  0  0  0  0  0  0
   10.9108    0.2933   -0.8589 H   0  0  0  0  0  0  0  0  0  0  0  0
   12.7690    1.8215   -0.1789 H   0  0  0  0  0  0  0  0  0  0  0  0
   13.7638    0.4348    0.3818 H   0  0  0  0  0  0  0  0  0  0  0  0
   13.6790   -0.5992   -2.0249 H   0  0  0  0  0  0  0  0  0  0  0  0
   12.6842    0.7874   -2.5856 H   0  0  0  0  0  0  0  0  0  0  0  0
   13.6109   -1.4086    1.0479 H   0  0  0  0  0  0  0  0  0  0  0  0
   12.3034   -3.1084    2.0684 H   0  0  0  0  0  0  0  0  0  0  0  0
   14.9405   -3.4651    1.5731 H   0  0  0  0  0  0  0  0  0  0  0  0
  1  2  1  0  0  0  0
  2  3  1  0  0  0  0
  3  4  1  0  0  0  0
  4  5  1  0  0  0  0
  4 26  1  0  0  0  0
  5  6  1  0  0  0  0
  6  7  1  0  0  0  0
  7  8  1  0  0  0  0
  7 25  1  0  0  0  0
  8  9  1  0  0  0  0
  8 15  1  0  0  0  0
  9 10  2  0  0  0  0
  9 14  1  0  0  0  0
 10 11  1  0  0  0  0
 11 12  2  0  0  0  0
 12 13  1  0  0  0  0
 13 14  2  0  0  0  0
 15 16  2  0  0  0  0
 16 17  1  0  0  0  0
 16 24  1  0  0  0  0
 17 18  2  0  0  0  0
 18 19  1  0  0  0  0
 19 20  1  0  0  0  0
 19 23  2  0  0  0  0
 20 21  1  0  0  0  0
 20 22  1  0  0  0  0
 21 22  1  0  0  0  0
 23 24  1  0  0  0  0
 24 25  1  0  0  0  0
 25 26  1  0  0  0  0
  1 27  1  0  0  0  0
  1 28  1  0  0  0  0
  1 29  1  0  0  0  0
  2 30  1  0  0  0  0
  3 31  1  0  0  0  0
  3 32  1  0  0  0  0
  4 33  1  0  0  0  0
  5 34  1  0  0  0  0
  5 35  1  0  0  0  0
  6 36  1  0  0  0  0
  6 37  1  0  0  0  0
  7 38  1  0  0  0  0
  8 39  1  0  0  0  0
 10 40  1  0  0  0  0
 11 41  1  0  0  0  0
 12 42  1  0  0  0  0
 13 43  1  0  0  0  0
 14 44  1  0  0  0  0
 17 45  1  0  0  0  0
 18 46  1  0  0  0  0
 20 47  1  0  0  0  0
 21 48  1  0  0  0  0
 21 49  1  0  0  0  0
 22 50  1  0  0  0  0
 22 51  1  0  0  0  0
 23 52  1  0  0  0  0
 24 53  1  0  0  0  0
 25 54  1  0  0  0  0
M  END
> <ID>
CHEMBL1083836

> <IC50[nM]>
11

$$$$
CHEMBL1083836
  -OEChem-05192314313D
 Structure written by MMmdl.
 54 58  0     1  0  0  0  0  0999 V2000
   15.2821   -4.6350    7.5364 C   0  0  0  0  0  0  0  0  0  0  0  0
   14.1932   -3.9714    6.6802 N   0  0  0  0  0  0  0  0  0  0  0  0
   14.7173   -3.0545    5.5540 C   0  0  0  0  0  0  0  0  0  0  0  0
   14.9175   -3.7786    4.1872 C   0  0  1  0  0  0  0  0  0  0  0  0
   15.0874   -5.3228    4.2360 C   0  0  0  0  0  0  0  0  0  0  0  0
   15.2206   -5.9197    2.8310 C   0  0  0  0  0  0  0  0  0  0  0  0
   14.1088   -5.4312    1.8792 C   0  0  1  0  0  0  0  0  0  0  0  0
   12.7176   -6.0847    2.1226 C   0  0  2  0  0  0  0  0  0  0  0  0
   12.7637   -7.6040    2.0348 C   0  0  0  0  0  0  0  0  0  0  0  0
   13.2571   -8.2154    0.8775 C   0  0  0  0  0  0  0  0  0  0  0  0
   13.3310   -9.5999    0.7947 C   0  0  0  0  0  0  0  0  0  0  0  0
   12.9090  -10.3740    1.8712 C   0  0  0  0  0  0  0  0  0  0  0  0
   12.4010   -9.7717    3.0201 C   0  0  0  0  0  0  0  0  0  0  0  0
   12.3216   -8.3846    3.1028 C   0  0  0  0  0  0  0  0  0  0  0  0
   11.7445   -5.5529    1.1675 N   0  0  0  0  0  0  0  0  0  0  0  0
   11.7783   -4.2163    0.7637 C   0  0  0  0  0  0  0  0  0  0  0  0
   10.7564   -3.7313   -0.0600 C   0  0  0  0  0  0  0  0  0  0  0  0
   10.7840   -2.4218   -0.5217 C   0  0  0  0  0  0  0  0  0  0  0  0
   11.8218   -1.5818   -0.1229 C   0  0  0  0  0  0  0  0  0  0  0  0
   11.8894   -0.1791   -0.6884 C   0  0  0  0  0  0  0  0  0  0  0  0
   12.9842    0.7528   -0.3261 C   0  0  0  0  0  0  0  0  0  0  0  0
   12.9393    0.1563   -1.7215 C   0  0  0  0  0  0  0  0  0  0  0  0
   12.8260   -2.0751    0.7222 C   0  0  0  0  0  0  0  0  0  0  0  0
   12.8412   -3.3893    1.1509 C   0  0  0  0  0  0  0  0  0  0  0  0
   14.0126   -3.8975    1.9757 C   0  0  1  0  0  0  0  0  0  0  0  0
   13.8215   -3.4695    3.3243 O   0  0  0  0  0  0  0  0  0  0  0  0
   14.8113   -5.2642    8.3061 H   0  0  0  0  0  0  0  0  0  0  0  0
   15.9234   -5.2580    6.8955 H   0  0  0  0  0  0  0  0  0  0  0  0
   15.8919   -3.8580    8.0206 H   0  0  0  0  0  0  0  0  0  0  0  0
   13.6443   -4.6947    6.2612 H   0  0  0  0  0  0  0  0  0  0  0  0
   13.9957   -2.2369    5.4097 H   0  0  0  0  0  0  0  0  0  0  0  0
   15.6852   -2.6378    5.8696 H   0  0  0  0  0  0  0  0  0  0  0  0
   15.8366   -3.3699    3.7419 H   0  0  0  0  0  0  0  0  0  0  0  0
   15.9917   -5.5645    4.8138 H   0  0  0  0  0  0  0  0  0  0  0  0
   14.2084   -5.7633    4.7293 H   0  0  0  0  0  0  0  0  0  0  0  0
   16.1961   -5.6288    2.4142 H   0  0  0  0  0  0  0  0  0  0  0  0
   15.1659   -7.0158    2.9057 H   0  0  0  0  0  0  0  0  0  0  0  0
   14.4157   -5.6819    0.8531 H   0  0  0  0  0  0  0  0  0  0  0  0
   12.3975   -5.8137    3.1395 H   0  0  0  0  0  0  0  0  0  0  0  0
   13.5818   -7.6086    0.0452 H   0  0  0  0  0  0  0  0  0  0  0  0
   13.7131  -10.0720   -0.0984 H   0  0  0  0  0  0  0  0  0  0  0  0
   12.9758  -11.4505    1.8156 H   0  0  0  0  0  0  0  0  0  0  0  0
   12.0686  -10.3815    3.8472 H   0  0  0  0  0  0  0  0  0  0  0  0
   11.9200   -7.9154    3.9888 H   0  0  0  0  0  0  0  0  0  0  0  0
   10.7347   -4.3784   -0.9492 H   0  0  0  0  0  0  0  0  0  0  0  0
    9.8175   -3.8477    0.5012 H   0  0  0  0  0  0  0  0  0  0  0  0
   10.0103   -2.0588   -1.1820 H   0  0  0  0  0  0  0  0  0  0  0  0
   10.9108    0.2933   -0.8589 H   0  0  0  0  0  0  0  0  0  0  0  0
   12.7690    1.8215   -0.1789 H   0  0  0  0  0  0  0  0  0  0  0  0
   13.7638    0.4348    0.3818 H   0  0  0  0  0  0  0  0  0  0  0  0
   13.6790   -0.5992   -2.0249 H   0  0  0  0  0  0  0  0  0  0  0  0
   12.6842    0.7874   -2.5856 H   0  0  0  0  0  0  0  0  0  0  0  0
   13.6109   -1.4086    1.0479 H   0  0  0  0  0  0  0  0  0  0  0  0
   14.9405   -3.4651    1.5731 H   0  0  0  0  0  0  0  0  0  0  0  0
  1  2  1  0  0  0  0
  2  3  1  0  0  0  0
  3  4  1  0  0  0  0
  4  5  1  0  0  0  0
  4 26  1  0  0  0  0
  5  6  1  0  0  0  0
  6  7  1  0  0  0  0
  7  8  1  0  0  0  0
  7 25  1  0  0  0  0
  8  9  1  0  0  0  0
  8 15  1  0  0  0  0
  9 10  2  0  0  0  0
  9 14  1  0  0  0  0
 10 11  1  0  0  0  0
 11 12  2  0  0  0  0
 12 13  1  0  0  0  0
 13 14  2  0  0  0  0
 15 16  2  0  0  0  0
 16 17  1  0  0  0  0
 16 24  1  0  0  0  0
 17 18  1  0  0  0  0
 18 19  2  0  0  0  0
 19 20  1  0  0  0  0
 19 23  1  0  0  0  0
 20 21  1  0  0  0  0
 20 22  1  0  0  0  0
 21 22  1  0  0  0  0
 23 24  2  0  0  0  0
 24 25  1  0  0  0  0
 25 26  1  0  0  0  0
  1 27  1  0  0  0  0
  1 28  1  0  0  0  0
  1 29  1  0  0  0  0
  2 30  1  0  0  0  0
  3 31  1  0  0  0  0
  3 32  1  0  0  0  0
  4 33  1  0  0  0  0
  5 34  1  0  0  0  0
  5 35  1  0  0  0  0
  6 36  1  0  0  0  0
  6 37  1  0  0  0  0
  7 38  1  0  0  0  0
  8 39  1  0  0  0  0
 10 40  1  0  0  0  0
 11 41  1  0  0  0  0
 12 42  1  0  0  0  0
 13 43  1  0  0  0  0
 14 44  1  0  0  0  0
 17 45  1  0  0  0  0
 17 46  1  0  0  0  0
 18 47  1  0  0  0  0
 20 48  1  0  0  0  0
 21 49  1  0  0  0  0
 21 50  1  0  0  0  0
 22 51  1  0  0  0  0
 22 52  1  0  0  0  0
 23 53  1  0  0  0  0
 25 54  1  0  0  0  0
M  END
> <ID>
CHEMBL1083836

> <IC50[nM]>
11

$$$$
