CHEMBL1085895
  -OEChem-05192314313D
 Structure written by MMmdl.
 61 64  0     1  0  0  0  0  0999 V2000
   16.4467   -4.4109    7.4249 O   0  0  0  0  0  0  0  0  0  0  0  0
   15.2351   -4.6139    7.4730 C   0  0  0  0  0  0  0  0  0  0  0  0
   14.6650   -5.5529    8.2387 N   0  0  0  0  0  0  0  0  0  0  0  0
   15.3869   -6.4361    9.1585 C   0  0  0  0  0  0  0  0  0  0  0  0
   15.2668   -6.0328   10.6455 C   0  0  0  0  0  0  0  0  0  0  0  0
   13.8226   -5.9803   11.1627 C   0  0  0  0  0  0  0  0  0  0  0  0
   13.1566   -4.8684   10.5881 O   0  0  0  0  0  0  0  0  0  0  0  0
   14.3343   -3.9820    6.7011 N   0  0  0  0  0  0  0  0  0  0  0  0
   14.6936   -3.0974    5.5864 C   0  0  0  0  0  0  0  0  0  0  0  0
   14.8991   -3.7794    4.2042 C   0  0  1  0  0  0  0  0  0  0  0  0
   15.0796   -5.3216    4.2396 C   0  0  0  0  0  0  0  0  0  0  0  0
   15.2170   -5.9056    2.8282 C   0  0  0  0  0  0  0  0  0  0  0  0
   14.0982   -5.4118    1.8834 C   0  0  1  0  0  0  0  0  0  0  0  0
   12.7071   -6.0676    2.1263 C   0  0  2  0  0  0  0  0  0  0  0  0
   12.7538   -7.5905    2.0348 C   0  0  0  0  0  0  0  0  0  0  0  0
   12.3222   -8.3753    3.1056 C   0  0  0  0  0  0  0  0  0  0  0  0
   12.3985   -9.7635    3.0200 C   0  0  0  0  0  0  0  0  0  0  0  0
   12.9019  -10.3648    1.8691 C   0  0  0  0  0  0  0  0  0  0  0  0
   13.3224   -9.5891    0.7939 C   0  0  0  0  0  0  0  0  0  0  0  0
   13.2458   -8.2037    0.8776 C   0  0  0  0  0  0  0  0  0  0  0  0
   11.7300   -5.5199    1.1852 N   0  0  0  0  0  0  0  0  0  0  0  0
   11.7894   -4.1781    0.7704 C   0  0  0  0  0  0  0  0  0  0  0  0
   10.7703   -3.7089   -0.0567 C   0  0  0  0  0  0  0  0  0  0  0  0
   10.8105   -2.4059   -0.5418 C   0  0  0  0  0  0  0  0  0  0  0  0
   11.8590   -1.5551   -0.1897 C   0  0  0  0  0  0  0  0  0  0  0  0
   11.9086   -0.1381   -0.7474 C   0  0  0  0  0  0  0  0  0  0  0  0
   10.6756    0.3312   -0.9261 F   0  0  0  0  0  0  0  0  0  0  0  0
   12.5656    0.6893    0.0654 F   0  0  0  0  0  0  0  0  0  0  0  0
   12.5316   -0.1600   -1.9259 F   0  0  0  0  0  0  0  0  0  0  0  0
   12.8601   -2.0232    0.6679 C   0  0  0  0  0  0  0  0  0  0  0  0
   12.8600   -3.3430    1.1355 C   0  0  0  0  0  0  0  0  0  0  0  0
   14.0117   -3.8696    1.9810 C   0  0  1  0  0  0  0  0  0  0  0  0
   13.8055   -3.4605    3.3355 O   0  0  0  0  0  0  0  0  0  0  0  0
   13.6725   -5.6594    8.1783 H   0  0  0  0  0  0  0  0  0  0  0  0
   14.9881   -7.4548    9.0436 H   0  0  0  0  0  0  0  0  0  0  0  0
   16.4517   -6.4260    8.8828 H   0  0  0  0  0  0  0  0  0  0  0  0
   15.8240   -6.7648   11.2486 H   0  0  0  0  0  0  0  0  0  0  0  0
   15.7158   -5.0365   10.7712 H   0  0  0  0  0  0  0  0  0  0  0  0
   13.2988   -6.9064   10.8832 H   0  0  0  0  0  0  0  0  0  0  0  0
   13.8285   -5.8786   12.2580 H   0  0  0  0  0  0  0  0  0  0  0  0
   12.2625   -4.8346   10.9074 H   0  0  0  0  0  0  0  0  0  0  0  0
   13.3639   -4.1226    6.8975 H   0  0  0  0  0  0  0  0  0  0  0  0
   13.8909   -2.3533    5.4769 H   0  0  0  0  0  0  0  0  0  0  0  0
   15.6319   -2.5882    5.8517 H   0  0  0  0  0  0  0  0  0  0  0  0
   15.8195   -3.3587    3.7732 H   0  0  0  0  0  0  0  0  0  0  0  0
   15.9855   -5.5620    4.8153 H   0  0  0  0  0  0  0  0  0  0  0  0
   14.2037   -5.7725    4.7290 H   0  0  0  0  0  0  0  0  0  0  0  0
   16.1903   -5.6048    2.4131 H   0  0  0  0  0  0  0  0  0  0  0  0
   15.1688   -7.0027    2.8920 H   0  0  0  0  0  0  0  0  0  0  0  0
   14.4016   -5.6598    0.8556 H   0  0  0  0  0  0  0  0  0  0  0  0
   12.3941   -5.8035    3.1472 H   0  0  0  0  0  0  0  0  0  0  0  0
   11.9306   -7.9079    3.9970 H   0  0  0  0  0  0  0  0  0  0  0  0
   12.0670  -10.3741    3.8469 H   0  0  0  0  0  0  0  0  0  0  0  0
   12.9662  -11.4413    1.8110 H   0  0  0  0  0  0  0  0  0  0  0  0
   13.7056  -10.0597   -0.0994 H   0  0  0  0  0  0  0  0  0  0  0  0
   13.5681   -7.5970    0.0442 H   0  0  0  0  0  0  0  0  0  0  0  0
   11.7930   -6.0756    0.3562 H   0  0  0  0  0  0  0  0  0  0  0  0
    9.9485   -4.3578   -0.3212 H   0  0  0  0  0  0  0  0  0  0  0  0
   10.0264   -2.0509   -1.1942 H   0  0  0  0  0  0  0  0  0  0  0  0
   13.6491   -1.3530    0.9756 H   0  0  0  0  0  0  0  0  0  0  0  0
   14.9519   -3.4447    1.5996 H   0  0  0  0  0  0  0  0  0  0  0  0
  1  2  2  0  0  0  0
  2  3  1  0  0  0  0
  2  8  1  0  0  0  0
  3  4  1  0  0  0  0
  4  5  1  0  0  0  0
  5  6  1  0  0  0  0
  6  7  1  0  0  0  0
  8  9  1  0  0  0  0
  9 10  1  0  0  0  0
 10 11  1  0  0  0  0
 10 33  1  0  0  0  0
 11 12  1  0  0  0  0
 12 13  1  0  0  0  0
 13 14  1  0  0  0  0
 13 32  1  0  0  0  0
 14 15  1  0  0  0  0
 14 21  1  0  0  0  0
 15 16  2  0  0  0  0
 15 20  1  0  0  0  0
 16 17  1  0  0  0  0
 17 18  2  0  0  0  0
 18 19  1  0  0  0  0
 19 20  2  0  0  0  0
 21 22  1  0  0  0  0
 22 23  2  0  0  0  0
 22 31  1  0  0  0  0
 23 24  1  0  0  0  0
 24 25  2  0  0  0  0
 25 26  1  0  0  0  0
 25 30  1  0  0  0  0
 26 27  1  0  0  0  0
 26 28  1  0  0  0  0
 26 29  1  0  0  0  0
 30 31  2  0  0  0  0
 31 32  1  0  0  0  0
 32 33  1  0  0  0  0
  3 34  1  0  0  0  0
  4 35  1  0  0  0  0
  4 36  1  0  0  0  0
  5 37  1  0  0  0  0
  5 38  1  0  0  0  0
  6 39  1  0  0  0  0
  6 40  1  0  0  0  0
  7 41  1  0  0  0  0
  8 42  1  0  0  0  0
  9 43  1  0  0  0  0
  9 44  1  0  0  0  0
 10 45  1  0  0  0  0
 11 46  1  0  0  0  0
 11 47  1  0  0  0  0
 12 48  1  0  0  0  0
 12 49  1  0  0  0  0
 13 50  1  0  0  0  0
 14 51  1  0  0  0  0
 16 52  1  0  0  0  0
 17 53  1  0  0  0  0
 18 54  1  0  0  0  0
 19 55  1  0  0  0  0
 20 56  1  0  0  0  0
 21 57  1  0  0  0  0
 23 58  1  0  0  0  0
 24 59  1  0  0  0  0
 30 60  1  0  0  0  0
 32 61  1  0  0  0  0
M  END
> <ID>
CHEMBL1085895

> <IC50[nM]>
11

$$$$
CHEMBL1085895
  -OEChem-05192314313D
 Structure written by MMmdl.
 61 64  0     1  0  0  0  0  0999 V2000
   16.4467   -4.4109    7.4249 O   0  0  0  0  0  0  0  0  0  0  0  0
   15.2351   -4.6139    7.4730 C   0  0  0  0  0  0  0  0  0  0  0  0
   14.6650   -5.5529    8.2387 N   0  0  0  0  0  0  0  0  0  0  0  0
   15.3869   -6.4361    9.1585 C   0  0  0  0  0  0  0  0  0  0  0  0
   15.2668   -6.0328   10.6455 C   0  0  0  0  0  0  0  0  0  0  0  0
   13.8226   -5.9803   11.1627 C   0  0  0  0  0  0  0  0  0  0  0  0
   13.1566   -4.8684   10.5881 O   0  0  0  0  0  0  0  0  0  0  0  0
   14.3343   -3.9820    6.7011 N   0  0  0  0  0  0  0  0  0  0  0  0
   14.6936   -3.0974    5.5864 C   0  0  0  0  0  0  0  0  0  0  0  0
   14.8991   -3.7794    4.2042 C   0  0  1  0  0  0  0  0  0  0  0  0
   15.0796   -5.3216    4.2396 C   0  0  0  0  0  0  0  0  0  0  0  0
   15.2170   -5.9056    2.8282 C   0  0  0  0  0  0  0  0  0  0  0  0
   14.0982   -5.4118    1.8834 C   0  0  1  0  0  0  0  0  0  0  0  0
   12.7071   -6.0676    2.1263 C   0  0  2  0  0  0  0  0  0  0  0  0
   12.7538   -7.5905    2.0348 C   0  0  0  0  0  0  0  0  0  0  0  0
   12.3222   -8.3753    3.1056 C   0  0  0  0  0  0  0  0  0  0  0  0
   12.3985   -9.7635    3.0200 C   0  0  0  0  0  0  0  0  0  0  0  0
   12.9019  -10.3648    1.8691 C   0  0  0  0  0  0  0  0  0  0  0  0
   13.3224   -9.5891    0.7939 C   0  0  0  0  0  0  0  0  0  0  0  0
   13.2458   -8.2037    0.8776 C   0  0  0  0  0  0  0  0  0  0  0  0
   11.7300   -5.5199    1.1852 N   0  0  0  0  0  0  0  0  0  0  0  0
   11.7894   -4.1781    0.7704 C   0  0  0  0  0  0  0  0  0  0  0  0
   10.7703   -3.7089   -0.0567 C   0  0  0  0  0  0  0  0  0  0  0  0
   10.8105   -2.4059   -0.5418 C   0  0  0  0  0  0  0  0  0  0  0  0
   11.8590   -1.5551   -0.1897 C   0  0  0  0  0  0  0  0  0  0  0  0
   11.9086   -0.1381   -0.7474 C   0  0  0  0  0  0  0  0  0  0  0  0
   10.6756    0.3312   -0.9261 F   0  0  0  0  0  0  0  0  0  0  0  0
   12.5656    0.6893    0.0654 F   0  0  0  0  0  0  0  0  0  0  0  0
   12.5316   -0.1600   -1.9259 F   0  0  0  0  0  0  0  0  0  0  0  0
   12.8601   -2.0232    0.6679 C   0  0  0  0  0  0  0  0  0  0  0  0
   12.8600   -3.3430    1.1355 C   0  0  0  0  0  0  0  0  0  0  0  0
   14.0117   -3.8696    1.9810 C   0  0  1  0  0  0  0  0  0  0  0  0
   13.8055   -3.4605    3.3355 O   0  0  0  0  0  0  0  0  0  0  0  0
   16.6255   -3.7013    6.8191 H   0  0  0  0  0  0  0  0  0  0  0  0
   13.6725   -5.6594    8.1783 H   0  0  0  0  0  0  0  0  0  0  0  0
   14.9881   -7.4548    9.0436 H   0  0  0  0  0  0  0  0  0  0  0  0
   16.4517   -6.4260    8.8828 H   0  0  0  0  0  0  0  0  0  0  0  0
   15.8240   -6.7648   11.2486 H   0  0  0  0  0  0  0  0  0  0  0  0
   15.7158   -5.0365   10.7712 H   0  0  0  0  0  0  0  0  0  0  0  0
   13.2988   -6.9064   10.8832 H   0  0  0  0  0  0  0  0  0  0  0  0
   13.8285   -5.8786   12.2580 H   0  0  0  0  0  0  0  0  0  0  0  0
   12.2625   -4.8346   10.9074 H   0  0  0  0  0  0  0  0  0  0  0  0
   13.8909   -2.3533    5.4769 H   0  0  0  0  0  0  0  0  0  0  0  0
   15.6319   -2.5882    5.8517 H   0  0  0  0  0  0  0  0  0  0  0  0
   15.8195   -3.3587    3.7732 H   0  0  0  0  0  0  0  0  0  0  0  0
   15.9855   -5.5620    4.8153 H   0  0  0  0  0  0  0  0  0  0  0  0
   14.2037   -5.7725    4.7290 H   0  0  0  0  0  0  0  0  0  0  0  0
   16.1903   -5.6048    2.4131 H   0  0  0  0  0  0  0  0  0  0  0  0
   15.1688   -7.0027    2.8920 H   0  0  0  0  0  0  0  0  0  0  0  0
   14.4016   -5.6598    0.8556 H   0  0  0  0  0  0  0  0  0  0  0  0
   12.3941   -5.8035    3.1472 H   0  0  0  0  0  0  0  0  0  0  0  0
   11.9306   -7.9079    3.9970 H   0  0  0  0  0  0  0  0  0  0  0  0
   12.0670  -10.3741    3.8469 H   0  0  0  0  0  0  0  0  0  0  0  0
   12.9662  -11.4413    1.8110 H   0  0  0  0  0  0  0  0  0  0  0  0
   13.7056  -10.0597   -0.0994 H   0  0  0  0  0  0  0  0  0  0  0  0
   13.5681   -7.5970    0.0442 H   0  0  0  0  0  0  0  0  0  0  0  0
   11.7930   -6.0756    0.3562 H   0  0  0  0  0  0  0  0  0  0  0  0
    9.9485   -4.3578   -0.3212 H   0  0  0  0  0  0  0  0  0  0  0  0
   10.0264   -2.0509   -1.1942 H   0  0  0  0  0  0  0  0  0  0  0  0
   13.6491   -1.3530    0.9756 H   0  0  0  0  0  0  0  0  0  0  0  0
   14.9519   -3.4447    1.5996 H   0  0  0  0  0  0  0  0  0  0  0  0
  1  2  1  0  0  0  0
  2  3  1  0  0  0  0
  2  8  2  0  0  0  0
  3  4  1  0  0  0  0
  4  5  1  0  0  0  0
  5  6  1  0  0  0  0
  6  7  1  0  0  0  0
  8  9  1  0  0  0  0
  9 10  1  0  0  0  0
 10 11  1  0  0  0  0
 10 33  1  0  0  0  0
 11 12  1  0  0  0  0
 12 13  1  0  0  0  0
 13 14  1  0  0  0  0
 13 32  1  0  0  0  0
 14 15  1  0  0  0  0
 14 21  1  0  0  0  0
 15 16  2  0  0  0  0
 15 20  1  0  0  0  0
 16 17  1  0  0  0  0
 17 18  2  0  0  0  0
 18 19  1  0  0  0  0
 19 20  2  0  0  0  0
 21 22  1  0  0  0  0
 22 23  2  0  0  0  0
 22 31  1  0  0  0  0
 23 24  1  0  0  0  0
 24 25  2  0  0  0  0
 25 26  1  0  0  0  0
 25 30  1  0  0  0  0
 26 27  1  0  0  0  0
 26 28  1  0  0  0  0
 26 29  1  0  0  0  0
 30 31  2  0  0  0  0
 31 32  1  0  0  0  0
 32 33  1  0  0  0  0
  1 34  1  0  0  0  0
  3 35  1  0  0  0  0
  4 36  1  0  0  0  0
  4 37  1  0  0  0  0
  5 38  1  0  0  0  0
  5 39  1  0  0  0  0
  6 40  1  0  0  0  0
  6 41  1  0  0  0  0
  7 42  1  0  0  0  0
  9 43  1  0  0  0  0
  9 44  1  0  0  0  0
 10 45  1  0  0  0  0
 11 46  1  0  0  0  0
 11 47  1  0  0  0  0
 12 48  1  0  0  0  0
 12 49  1  0  0  0  0
 13 50  1  0  0  0  0
 14 51  1  0  0  0  0
 16 52  1  0  0  0  0
 17 53  1  0  0  0  0
 18 54  1  0  0  0  0
 19 55  1  0  0  0  0
 20 56  1  0  0  0  0
 21 57  1  0  0  0  0
 23 58  1  0  0  0  0
 24 59  1  0  0  0  0
 30 60  1  0  0  0  0
 32 61  1  0  0  0  0
M  END
> <ID>
CHEMBL1085895

> <IC50[nM]>
11

$$$$
CHEMBL1085895
  -OEChem-05192314313D
 Structure written by MMmdl.
 61 64  0     1  0  0  0  0  0999 V2000
   16.4467   -4.4109    7.4249 O   0  0  0  0  0  0  0  0  0  0  0  0
   15.2351   -4.6139    7.4730 C   0  0  0  0  0  0  0  0  0  0  0  0
   14.6650   -5.5529    8.2387 N   0  0  0  0  0  0  0  0  0  0  0  0
   15.3869   -6.4361    9.1585 C   0  0  0  0  0  0  0  0  0  0  0  0
   15.2668   -6.0328   10.6455 C   0  0  0  0  0  0  0  0  0  0  0  0
   13.8226   -5.9803   11.1627 C   0  0  0  0  0  0  0  0  0  0  0  0
   13.1566   -4.8684   10.5881 O   0  0  0  0  0  0  0  0  0  0  0  0
   14.3343   -3.9820    6.7011 N   0  0  0  0  0  0  0  0  0  0  0  0
   14.6936   -3.0974    5.5864 C   0  0  0  0  0  0  0  0  0  0  0  0
   14.8991   -3.7794    4.2042 C   0  0  1  0  0  0  0  0  0  0  0  0
   15.0796   -5.3216    4.2396 C   0  0  0  0  0  0  0  0  0  0  0  0
   15.2170   -5.9056    2.8282 C   0  0  0  0  0  0  0  0  0  0  0  0
   14.0982   -5.4118    1.8834 C   0  0  1  0  0  0  0  0  0  0  0  0
   12.7071   -6.0676    2.1263 C   0  0  2  0  0  0  0  0  0  0  0  0
   12.7538   -7.5905    2.0348 C   0  0  0  0  0  0  0  0  0  0  0  0
   12.3222   -8.3753    3.1056 C   0  0  0  0  0  0  0  0  0  0  0  0
   12.3985   -9.7635    3.0200 C   0  0  0  0  0  0  0  0  0  0  0  0
   12.9019  -10.3648    1.8691 C   0  0  0  0  0  0  0  0  0  0  0  0
   13.3224   -9.5891    0.7939 C   0  0  0  0  0  0  0  0  0  0  0  0
   13.2458   -8.2037    0.8776 C   0  0  0  0  0  0  0  0  0  0  0  0
   11.7300   -5.5199    1.1852 N   0  0  0  0  0  0  0  0  0  0  0  0
   11.7894   -4.1781    0.7704 C   0  0  0  0  0  0  0  0  0  0  0  0
   10.7703   -3.7089   -0.0567 C   0  0  0  0  0  0  0  0  0  0  0  0
   10.8105   -2.4059   -0.5418 C   0  0  0  0  0  0  0  0  0  0  0  0
   11.8590   -1.5551   -0.1897 C   0  0  0  0  0  0  0  0  0  0  0  0
   11.9086   -0.1381   -0.7474 C   0  0  0  0  0  0  0  0  0  0  0  0
   10.6756    0.3312   -0.9261 F   0  0  0  0  0  0  0  0  0  0  0  0
   12.5656    0.6893    0.0654 F   0  0  0  0  0  0  0  0  0  0  0  0
   12.5316   -0.1600   -1.9259 F   0  0  0  0  0  0  0  0  0  0  0  0
   12.8601   -2.0232    0.6679 C   0  0  0  0  0  0  0  0  0  0  0  0
   12.8600   -3.3430    1.1355 C   0  0  0  0  0  0  0  0  0  0  0  0
   14.0117   -3.8696    1.9810 C   0  0  1  0  0  0  0  0  0  0  0  0
   13.8055   -3.4605    3.3355 O   0  0  0  0  0  0  0  0  0  0  0  0
   16.6255   -3.7013    6.8191 H   0  0  0  0  0  0  0  0  0  0  0  0
   14.9881   -7.4548    9.0436 H   0  0  0  0  0  0  0  0  0  0  0  0
   16.4517   -6.4260    8.8828 H   0  0  0  0  0  0  0  0  0  0  0  0
   15.8240   -6.7648   11.2486 H   0  0  0  0  0  0  0  0  0  0  0  0
   15.7158   -5.0365   10.7712 H   0  0  0  0  0  0  0  0  0  0  0  0
   13.2988   -6.9064   10.8832 H   0  0  0  0  0  0  0  0  0  0  0  0
   13.8285   -5.8786   12.2580 H   0  0  0  0  0  0  0  0  0  0  0  0
   12.2625   -4.8346   10.9074 H   0  0  0  0  0  0  0  0  0  0  0  0
   13.3639   -4.1226    6.8975 H   0  0  0  0  0  0  0  0  0  0  0  0
   13.8909   -2.3533    5.4769 H   0  0  0  0  0  0  0  0  0  0  0  0
   15.6319   -2.5882    5.8517 H   0  0  0  0  0  0  0  0  0  0  0  0
   15.8195   -3.3587    3.7732 H   0  0  0  0  0  0  0  0  0  0  0  0
   15.9855   -5.5620    4.8153 H   0  0  0  0  0  0  0  0  0  0  0  0
   14.2037   -5.7725    4.7290 H   0  0  0  0  0  0  0  0  0  0  0  0
   16.1903   -5.6048    2.4131 H   0  0  0  0  0  0  0  0  0  0  0  0
   15.1688   -7.0027    2.8920 H   0  0  0  0  0  0  0  0  0  0  0  0
   14.4016   -5.6598    0.8556 H   0  0  0  0  0  0  0  0  0  0  0  0
   12.3941   -5.8035    3.1472 H   0  0  0  0  0  0  0  0  0  0  0  0
   11.9306   -7.9079    3.9970 H   0  0  0  0  0  0  0  0  0  0  0  0
   12.0670  -10.3741    3.8469 H   0  0  0  0  0  0  0  0  0  0  0  0
   12.9662  -11.4413    1.8110 H   0  0  0  0  0  0  0  0  0  0  0  0
   13.7056  -10.0597   -0.0994 H   0  0  0  0  0  0  0  0  0  0  0  0
   13.5681   -7.5970    0.0442 H   0  0  0  0  0  0  0  0  0  0  0  0
   11.7930   -6.0756    0.3562 H   0  0  0  0  0  0  0  0  0  0  0  0
    9.9485   -4.3578   -0.3212 H   0  0  0  0  0  0  0  0  0  0  0  0
   10.0264   -2.0509   -1.1942 H   0  0  0  0  0  0  0  0  0  0  0  0
   13.6491   -1.3530    0.9756 H   0  0  0  0  0  0  0  0  0  0  0  0
   14.9519   -3.4447    1.5996 H   0  0  0  0  0  0  0  0  0  0  0  0
  1  2  1  0  0  0  0
  2  3  2  0  0  0  0
  2  8  1  0  0  0  0
  3  4  1  0  0  0  0
  4  5  1  0  0  0  0
  5  6  1  0  0  0  0
  6  7  1  0  0  0  0
  8  9  1  0  0  0  0
  9 10  1  0  0  0  0
 10 11  1  0  0  0  0
 10 33  1  0  0  0  0
 11 12  1  0  0  0  0
 12 13  1  0  0  0  0
 13 14  1  0  0  0  0
 13 32  1  0  0  0  0
 14 15  1  0  0  0  0
 14 21  1  0  0  0  0
 15 16  2  0  0  0  0
 15 20  1  0  0  0  0
 16 17  1  0  0  0  0
 17 18  2  0  0  0  0
 18 19  1  0  0  0  0
 19 20  2  0  0  0  0
 21 22  1  0  0  0  0
 22 23  2  0  0  0  0
 22 31  1  0  0  0  0
 23 24  1  0  0  0  0
 24 25  2  0  0  0  0
 25 26  1  0  0  0  0
 25 30  1  0  0  0  0
 26 27  1  0  0  0  0
 26 28  1  0  0  0  0
 26 29  1  0  0  0  0
 30 31  2  0  0  0  0
 31 32  1  0  0  0  0
 32 33  1  0  0  0  0
  1 34  1  0  0  0  0
  4 35  1  0  0  0  0
  4 36  1  0  0  0  0
  5 37  1  0  0  0  0
  5 38  1  0  0  0  0
  6 39  1  0  0  0  0
  6 40  1  0  0  0  0
  7 41  1  0  0  0  0
  8 42  1  0  0  0  0
  9 43  1  0  0  0  0
  9 44  1  0  0  0  0
 10 45  1  0  0  0  0
 11 46  1  0  0  0  0
 11 47  1  0  0  0  0
 12 48  1  0  0  0  0
 12 49  1  0  0  0  0
 13 50  1  0  0  0  0
 14 51  1  0  0  0  0
 16 52  1  0  0  0  0
 17 53  1  0  0  0  0
 18 54  1  0  0  0  0
 19 55  1  0  0  0  0
 20 56  1  0  0  0  0
 21 57  1  0  0  0  0
 23 58  1  0  0  0  0
 24 59  1  0  0  0  0
 30 60  1  0  0  0  0
 32 61  1  0  0  0  0
M  END
> <ID>
CHEMBL1085895

> <IC50[nM]>
11

$$$$
CHEMBL1085895
  -OEChem-05192314313D
 Structure written by MMmdl.
 61 64  0     1  0  0  0  0  0999 V2000
   16.4467   -4.4109    7.4249 O   0  0  0  0  0  0  0  0  0  0  0  0
   15.2351   -4.6139    7.4730 C   0  0  0  0  0  0  0  0  0  0  0  0
   14.6650   -5.5529    8.2387 N   0  0  0  0  0  0  0  0  0  0  0  0
   15.3869   -6.4361    9.1585 C   0  0  0  0  0  0  0  0  0  0  0  0
   15.2668   -6.0328   10.6455 C   0  0  0  0  0  0  0  0  0  0  0  0
   13.8226   -5.9803   11.1627 C   0  0  0  0  0  0  0  0  0  0  0  0
   13.1566   -4.8684   10.5881 O   0  0  0  0  0  0  0  0  0  0  0  0
   14.3343   -3.9820    6.7011 N   0  0  0  0  0  0  0  0  0  0  0  0
   14.6936   -3.0974    5.5864 C   0  0  0  0  0  0  0  0  0  0  0  0
   14.8991   -3.7794    4.2042 C   0  0  1  0  0  0  0  0  0  0  0  0
   15.0796   -5.3216    4.2396 C   0  0  0  0  0  0  0  0  0  0  0  0
   15.2170   -5.9056    2.8282 C   0  0  0  0  0  0  0  0  0  0  0  0
   14.0982   -5.4118    1.8834 C   0  0  1  0  0  0  0  0  0  0  0  0
   12.7071   -6.0676    2.1263 C   0  0  2  0  0  0  0  0  0  0  0  0
   12.7538   -7.5905    2.0348 C   0  0  0  0  0  0  0  0  0  0  0  0
   12.3222   -8.3753    3.1056 C   0  0  0  0  0  0  0  0  0  0  0  0
   12.3985   -9.7635    3.0200 C   0  0  0  0  0  0  0  0  0  0  0  0
   12.9019  -10.3648    1.8691 C   0  0  0  0  0  0  0  0  0  0  0  0
   13.3224   -9.5891    0.7939 C   0  0  0  0  0  0  0  0  0  0  0  0
   13.2458   -8.2037    0.8776 C   0  0  0  0  0  0  0  0  0  0  0  0
   11.7300   -5.5199    1.1852 N   0  0  0  0  0  0  0  0  0  0  0  0
   11.7894   -4.1781    0.7704 C   0  0  0  0  0  0  0  0  0  0  0  0
   10.7703   -3.7089   -0.0567 C   0  0  0  0  0  0  0  0  0  0  0  0
   10.8105   -2.4059   -0.5418 C   0  0  0  0  0  0  0  0  0  0  0  0
   11.8590   -1.5551   -0.1897 C   0  0  0  0  0  0  0  0  0  0  0  0
   11.9086   -0.1381   -0.7474 C   0  0  0  0  0  0  0  0  0  0  0  0
   10.6756    0.3312   -0.9261 F   0  0  0  0  0  0  0  0  0  0  0  0
   12.5656    0.6893    0.0654 F   0  0  0  0  0  0  0  0  0  0  0  0
   12.5316   -0.1600   -1.9259 F   0  0  0  0  0  0  0  0  0  0  0  0
   12.8601   -2.0232    0.6679 C   0  0  0  0  0  0  0  0  0  0  0  0
   12.8600   -3.3430    1.1355 C   0  0  0  0  0  0  0  0  0  0  0  0
   14.0117   -3.8696    1.9810 C   0  0  1  0  0  0  0  0  0  0  0  0
   13.8055   -3.4605    3.3355 O   0  0  0  0  0  0  0  0  0  0  0  0
   13.6725   -5.6594    8.1783 H   0  0  0  0  0  0  0  0  0  0  0  0
   14.9881   -7.4548    9.0436 H   0  0  0  0  0  0  0  0  0  0  0  0
   16.4517   -6.4260    8.8828 H   0  0  0  0  0  0  0  0  0  0  0  0
   15.8240   -6.7648   11.2486 H   0  0  0  0  0  0  0  0  0  0  0  0
   15.7158   -5.0365   10.7712 H   0  0  0  0  0  0  0  0  0  0  0  0
   13.2988   -6.9064   10.8832 H   0  0  0  0  0  0  0  0  0  0  0  0
   13.8285   -5.8786   12.2580 H   0  0  0  0  0  0  0  0  0  0  0  0
   12.2625   -4.8346   10.9074 H   0  0  0  0  0  0  0  0  0  0  0  0
   13.3639   -4.1226    6.8975 H   0  0  0  0  0  0  0  0  0  0  0  0
   13.8909   -2.3533    5.4769 H   0  0  0  0  0  0  0  0  0  0  0  0
   15.6319   -2.5882    5.8517 H   0  0  0  0  0  0  0  0  0  0  0  0
   15.8195   -3.3587    3.7732 H   0  0  0  0  0  0  0  0  0  0  0  0
   15.9855   -5.5620    4.8153 H   0  0  0  0  0  0  0  0  0  0  0  0
   14.2037   -5.7725    4.7290 H   0  0  0  0  0  0  0  0  0  0  0  0
   16.1903   -5.6048    2.4131 H   0  0  0  0  0  0  0  0  0  0  0  0
   15.1688   -7.0027    2.8920 H   0  0  0  0  0  0  0  0  0  0  0  0
   14.4016   -5.6598    0.8556 H   0  0  0  0  0  0  0  0  0  0  0  0
   12.3941   -5.8035    3.1472 H   0  0  0  0  0  0  0  0  0  0  0  0
   11.9306   -7.9079    3.9970 H   0  0  0  0  0  0  0  0  0  0  0  0
   12.0670  -10.3741    3.8469 H   0  0  0  0  0  0  0  0  0  0  0  0
   12.9662  -11.4413    1.8110 H   0  0  0  0  0  0  0  0  0  0  0  0
   13.7056  -10.0597   -0.0994 H   0  0  0  0  0  0  0  0  0  0  0  0
   13.5681   -7.5970    0.0442 H   0  0  0  0  0  0  0  0  0  0  0  0
    9.9485   -4.3578   -0.3212 H   0  0  0  0  0  0  0  0  0  0  0  0
   10.0264   -2.0509   -1.1942 H   0  0  0  0  0  0  0  0  0  0  0  0
   11.2816   -1.1971    0.6754 H   0  0  0  0  0  0  0  0  0  0  0  0
   13.6491   -1.3530    0.9756 H   0  0  0  0  0  0  0  0  0  0  0  0
   14.9519   -3.4447    1.5996 H   0  0  0  0  0  0  0  0  0  0  0  0
  1  2  2  0  0  0  0
  2  3  1  0  0  0  0
  2  8  1  0  0  0  0
  3  4  1  0  0  0  0
  4  5  1  0  0  0  0
  5  6  1  0  0  0  0
  6  7  1  0  0  0  0
  8  9  1  0  0  0  0
  9 10  1  0  0  0  0
 10 11  1  0  0  0  0
 10 33  1  0  0  0  0
 11 12  1  0  0  0  0
 12 13  1  0  0  0  0
 13 14  1  0  0  0  0
 13 32  1  0  0  0  0
 14 15  1  0  0  0  0
 14 21  1  0  0  0  0
 15 16  2  0  0  0  0
 15 20  1  0  0  0  0
 16 17  1  0  0  0  0
 17 18  2  0  0  0  0
 18 19  1  0  0  0  0
 19 20  2  0  0  0  0
 21 22  2  0  0  0  0
 22 23  1  0  0  0  0
 22 31  1  0  0  0  0
 23 24  2  0  0  0  0
 24 25  1  0  0  0  0
 25 26  1  0  0  0  0
 25 30  1  0  0  0  0
 26 27  1  0  0  0  0
 26 28  1  0  0  0  0
 26 29  1  0  0  0  0
 30 31  2  0  0  0  0
 31 32  1  0  0  0  0
 32 33  1  0  0  0  0
  3 34  1  0  0  0  0
  4 35  1  0  0  0  0
  4 36  1  0  0  0  0
  5 37  1  0  0  0  0
  5 38  1  0  0  0  0
  6 39  1  0  0  0  0
  6 40  1  0  0  0  0
  7 41  1  0  0  0  0
  8 42  1  0  0  0  0
  9 43  1  0  0  0  0
  9 44  1  0  0  0  0
 10 45  1  0  0  0  0
 11 46  1  0  0  0  0
 11 47  1  0  0  0  0
 12 48  1  0  0  0  0
 12 49  1  0  0  0  0
 13 50  1  0  0  0  0
 14 51  1  0  0  0  0
 16 52  1  0  0  0  0
 17 53  1  0  0  0  0
 18 54  1  0  0  0  0
 19 55  1  0  0  0  0
 20 56  1  0  0  0  0
 23 57  1  0  0  0  0
 24 58  1  0  0  0  0
 25 59  1  0  0  0  0
 30 60  1  0  0  0  0
 32 61  1  0  0  0  0
M  END
> <ID>
CHEMBL1085895

> <IC50[nM]>
11

$$$$
CHEMBL1085895
  -OEChem-05192314313D
 Structure written by MMmdl.
 61 64  0     1  0  0  0  0  0999 V2000
   16.4467   -4.4109    7.4249 O   0  0  0  0  0  0  0  0  0  0  0  0
   15.2351   -4.6139    7.4730 C   0  0  0  0  0  0  0  0  0  0  0  0
   14.6650   -5.5529    8.2387 N   0  0  0  0  0  0  0  0  0  0  0  0
   15.3869   -6.4361    9.1585 C   0  0  0  0  0  0  0  0  0  0  0  0
   15.2668   -6.0328   10.6455 C   0  0  0  0  0  0  0  0  0  0  0  0
   13.8226   -5.9803   11.1627 C   0  0  0  0  0  0  0  0  0  0  0  0
   13.1566   -4.8684   10.5881 O   0  0  0  0  0  0  0  0  0  0  0  0
   14.3343   -3.9820    6.7011 N   0  0  0  0  0  0  0  0  0  0  0  0
   14.6936   -3.0974    5.5864 C   0  0  0  0  0  0  0  0  0  0  0  0
   14.8991   -3.7794    4.2042 C   0  0  1  0  0  0  0  0  0  0  0  0
   15.0796   -5.3216    4.2396 C   0  0  0  0  0  0  0  0  0  0  0  0
   15.2170   -5.9056    2.8282 C   0  0  0  0  0  0  0  0  0  0  0  0
   14.0982   -5.4118    1.8834 C   0  0  1  0  0  0  0  0  0  0  0  0
   12.7071   -6.0676    2.1263 C   0  0  2  0  0  0  0  0  0  0  0  0
   12.7538   -7.5905    2.0348 C   0  0  0  0  0  0  0  0  0  0  0  0
   12.3222   -8.3753    3.1056 C   0  0  0  0  0  0  0  0  0  0  0  0
   12.3985   -9.7635    3.0200 C   0  0  0  0  0  0  0  0  0  0  0  0
   12.9019  -10.3648    1.8691 C   0  0  0  0  0  0  0  0  0  0  0  0
   13.3224   -9.5891    0.7939 C   0  0  0  0  0  0  0  0  0  0  0  0
   13.2458   -8.2037    0.8776 C   0  0  0  0  0  0  0  0  0  0  0  0
   11.7300   -5.5199    1.1852 N   0  0  0  0  0  0  0  0  0  0  0  0
   11.7894   -4.1781    0.7704 C   0  0  0  0  0  0  0  0  0  0  0  0
   10.7703   -3.7089   -0.0567 C   0  0  0  0  0  0  0  0  0  0  0  0
   10.8105   -2.4059   -0.5418 C   0  0  0  0  0  0  0  0  0  0  0  0
   11.8590   -1.5551   -0.1897 C   0  0  0  0  0  0  0  0  0  0  0  0
   11.9086   -0.1381   -0.7474 C   0  0  0  0  0  0  0  0  0  0  0  0
   10.6756    0.3312   -0.9261 F   0  0  0  0  0  0  0  0  0  0  0  0
   12.5656    0.6893    0.0654 F   0  0  0  0  0  0  0  0  0  0  0  0
   12.5316   -0.1600   -1.9259 F   0  0  0  0  0  0  0  0  0  0  0  0
   12.8601   -2.0232    0.6679 C   0  0  0  0  0  0  0  0  0  0  0  0
   12.8600   -3.3430    1.1355 C   0  0  0  0  0  0  0  0  0  0  0  0
   14.0117   -3.8696    1.9810 C   0  0  1  0  0  0  0  0  0  0  0  0
   13.8055   -3.4605    3.3355 O   0  0  0  0  0  0  0  0  0  0  0  0
   13.6725   -5.6594    8.1783 H   0  0  0  0  0  0  0  0  0  0  0  0
   14.9881   -7.4548    9.0436 H   0  0  0  0  0  0  0  0  0  0  0  0
   16.4517   -6.4260    8.8828 H   0  0  0  0  0  0  0  0  0  0  0  0
   15.8240   -6.7648   11.2486 H   0  0  0  0  0  0  0  0  0  0  0  0
   15.7158   -5.0365   10.7712 H   0  0  0  0  0  0  0  0  0  0  0  0
   13.2988   -6.9064   10.8832 H   0  0  0  0  0  0  0  0  0  0  0  0
   13.8285   -5.8786   12.2580 H   0  0  0  0  0  0  0  0  0  0  0  0
   12.2625   -4.8346   10.9074 H   0  0  0  0  0  0  0  0  0  0  0  0
   13.3639   -4.1226    6.8975 H   0  0  0  0  0  0  0  0  0  0  0  0
   13.8909   -2.3533    5.4769 H   0  0  0  0  0  0  0  0  0  0  0  0
   15.6319   -2.5882    5.8517 H   0  0  0  0  0  0  0  0  0  0  0  0
   15.8195   -3.3587    3.7732 H   0  0  0  0  0  0  0  0  0  0  0  0
   15.9855   -5.5620    4.8153 H   0  0  0  0  0  0  0  0  0  0  0  0
   14.2037   -5.7725    4.7290 H   0  0  0  0  0  0  0  0  0  0  0  0
   16.1903   -5.6048    2.4131 H   0  0  0  0  0  0  0  0  0  0  0  0
   15.1688   -7.0027    2.8920 H   0  0  0  0  0  0  0  0  0  0  0  0
   14.4016   -5.6598    0.8556 H   0  0  0  0  0  0  0  0  0  0  0  0
   12.3941   -5.8035    3.1472 H   0  0  0  0  0  0  0  0  0  0  0  0
   11.9306   -7.9079    3.9970 H   0  0  0  0  0  0  0  0  0  0  0  0
   12.0670  -10.3741    3.8469 H   0  0  0  0  0  0  0  0  0  0  0  0
   12.9662  -11.4413    1.8110 H   0  0  0  0  0  0  0  0  0  0  0  0
   13.7056  -10.0597   -0.0994 H   0  0  0  0  0  0  0  0  0  0  0  0
   13.5681   -7.5970    0.0442 H   0  0  0  0  0  0  0  0  0  0  0  0
    9.9485   -4.3578   -0.3212 H   0  0  0  0  0  0  0  0  0  0  0  0
   10.0264   -2.0509   -1.1942 H   0  0  0  0  0  0  0  0  0  0  0  0
   13.6491   -1.3530    0.9756 H   0  0  0  0  0  0  0  0  0  0  0  0
   12.3223   -3.0326    2.0435 H   0  0  0  0  0  0  0  0  0  0  0  0
   14.9519   -3.4447    1.5996 H   0  0  0  0  0  0  0  0  0  0  0  0
  1  2  2  0  0  0  0
  2  3  1  0  0  0  0
  2  8  1  0  0  0  0
  3  4  1  0  0  0  0
  4  5  1  0  0  0  0
  5  6  1  0  0  0  0
  6  7  1  0  0  0  0
  8  9  1  0  0  0  0
  9 10  1  0  0  0  0
 10 11  1  0  0  0  0
 10 33  1  0  0  0  0
 11 12  1  0  0  0  0
 12 13  1  0  0  0  0
 13 14  1  0  0  0  0
 13 32  1  0  0  0  0
 14 15  1  0  0  0  0
 14 21  1  0  0  0  0
 15 16  2  0  0  0  0
 15 20  1  0  0  0  0
 16 17  1  0  0  0  0
 17 18  2  0  0  0  0
 18 19  1  0  0  0  0
 19 20  2  0  0  0  0
 21 22  2  0  0  0  0
 22 23  1  0  0  0  0
 22 31  1  0  0  0  0
 23 24  2  0  0  0  0
 24 25  1  0  0  0  0
 25 26  1  0  0  0  0
 25 30  2  0  0  0  0
 26 27  1  0  0  0  0
 26 28  1  0  0  0  0
 26 29  1  0  0  0  0
 30 31  1  0  0  0  0
 31 32  1  0  0  0  0
 32 33  1  0  0  0  0
  3 34  1  0  0  0  0
  4 35  1  0  0  0  0
  4 36  1  0  0  0  0
  5 37  1  0  0  0  0
  5 38  1  0  0  0  0
  6 39  1  0  0  0  0
  6 40  1  0  0  0  0
  7 41  1  0  0  0  0
  8 42  1  0  0  0  0
  9 43  1  0  0  0  0
  9 44  1  0  0  0  0
 10 45  1  0  0  0  0
 11 46  1  0  0  0  0
 11 47  1  0  0  0  0
 12 48  1  0  0  0  0
 12 49  1  0  0  0  0
 13 50  1  0  0  0  0
 14 51  1  0  0  0  0
 16 52  1  0  0  0  0
 17 53  1  0  0  0  0
 18 54  1  0  0  0  0
 19 55  1  0  0  0  0
 20 56  1  0  0  0  0
 23 57  1  0  0  0  0
 24 58  1  0  0  0  0
 30 59  1  0  0  0  0
 31 60  1  0  0  0  0
 32 61  1  0  0  0  0
M  END
> <ID>
CHEMBL1085895

> <IC50[nM]>
11

$$$$
CHEMBL1085895
  -OEChem-05192314313D
 Structure written by MMmdl.
 61 64  0     1  0  0  0  0  0999 V2000
   16.4467   -4.4109    7.4249 O   0  0  0  0  0  0  0  0  0  0  0  0
   15.2351   -4.6139    7.4730 C   0  0  0  0  0  0  0  0  0  0  0  0
   14.6650   -5.5529    8.2387 N   0  0  0  0  0  0  0  0  0  0  0  0
   15.3869   -6.4361    9.1585 C   0  0  0  0  0  0  0  0  0  0  0  0
   15.2668   -6.0328   10.6455 C   0  0  0  0  0  0  0  0  0  0  0  0
   13.8226   -5.9803   11.1627 C   0  0  0  0  0  0  0  0  0  0  0  0
   13.1566   -4.8684   10.5881 O   0  0  0  0  0  0  0  0  0  0  0  0
   14.3343   -3.9820    6.7011 N   0  0  0  0  0  0  0  0  0  0  0  0
   14.6936   -3.0974    5.5864 C   0  0  0  0  0  0  0  0  0  0  0  0
   14.8991   -3.7794    4.2042 C   0  0  1  0  0  0  0  0  0  0  0  0
   15.0796   -5.3216    4.2396 C   0  0  0  0  0  0  0  0  0  0  0  0
   15.2170   -5.9056    2.8282 C   0  0  0  0  0  0  0  0  0  0  0  0
   14.0982   -5.4118    1.8834 C   0  0  1  0  0  0  0  0  0  0  0  0
   12.7071   -6.0676    2.1263 C   0  0  2  0  0  0  0  0  0  0  0  0
   12.7538   -7.5905    2.0348 C   0  0  0  0  0  0  0  0  0  0  0  0
   12.3222   -8.3753    3.1056 C   0  0  0  0  0  0  0  0  0  0  0  0
   12.3985   -9.7635    3.0200 C   0  0  0  0  0  0  0  0  0  0  0  0
   12.9019  -10.3648    1.8691 C   0  0  0  0  0  0  0  0  0  0  0  0
   13.3224   -9.5891    0.7939 C   0  0  0  0  0  0  0  0  0  0  0  0
   13.2458   -8.2037    0.8776 C   0  0  0  0  0  0  0  0  0  0  0  0
   11.7300   -5.5199    1.1852 N   0  0  0  0  0  0  0  0  0  0  0  0
   11.7894   -4.1781    0.7704 C   0  0  0  0  0  0  0  0  0  0  0  0
   10.7703   -3.7089   -0.0567 C   0  0  0  0  0  0  0  0  0  0  0  0
   10.8105   -2.4059   -0.5418 C   0  0  0  0  0  0  0  0  0  0  0  0
   11.8590   -1.5551   -0.1897 C   0  0  0  0  0  0  0  0  0  0  0  0
   11.9086   -0.1381   -0.7474 C   0  0  0  0  0  0  0  0  0  0  0  0
   10.6756    0.3312   -0.9261 F   0  0  0  0  0  0  0  0  0  0  0  0
   12.5656    0.6893    0.0654 F   0  0  0  0  0  0  0  0  0  0  0  0
   12.5316   -0.1600   -1.9259 F   0  0  0  0  0  0  0  0  0  0  0  0
   12.8601   -2.0232    0.6679 C   0  0  0  0  0  0  0  0  0  0  0  0
   12.8600   -3.3430    1.1355 C   0  0  0  0  0  0  0  0  0  0  0  0
   14.0117   -3.8696    1.9810 C   0  0  1  0  0  0  0  0  0  0  0  0
   13.8055   -3.4605    3.3355 O   0  0  0  0  0  0  0  0  0  0  0  0
   13.6725   -5.6594    8.1783 H   0  0  0  0  0  0  0  0  0  0  0  0
   14.9881   -7.4548    9.0436 H   0  0  0  0  0  0  0  0  0  0  0  0
   16.4517   -6.4260    8.8828 H   0  0  0  0  0  0  0  0  0  0  0  0
   15.8240   -6.7648   11.2486 H   0  0  0  0  0  0  0  0  0  0  0  0
   15.7158   -5.0365   10.7712 H   0  0  0  0  0  0  0  0  0  0  0  0
   13.2988   -6.9064   10.8832 H   0  0  0  0  0  0  0  0  0  0  0  0
   13.8285   -5.8786   12.2580 H   0  0  0  0  0  0  0  0  0  0  0  0
   12.2625   -4.8346   10.9074 H   0  0  0  0  0  0  0  0  0  0  0  0
   13.3639   -4.1226    6.8975 H   0  0  0  0  0  0  0  0  0  0  0  0
   13.8909   -2.3533    5.4769 H   0  0  0  0  0  0  0  0  0  0  0  0
   15.6319   -2.5882    5.8517 H   0  0  0  0  0  0  0  0  0  0  0  0
   15.8195   -3.3587    3.7732 H   0  0  0  0  0  0  0  0  0  0  0  0
   15.9855   -5.5620    4.8153 H   0  0  0  0  0  0  0  0  0  0  0  0
   14.2037   -5.7725    4.7290 H   0  0  0  0  0  0  0  0  0  0  0  0
   16.1903   -5.6048    2.4131 H   0  0  0  0  0  0  0  0  0  0  0  0
   15.1688   -7.0027    2.8920 H   0  0  0  0  0  0  0  0  0  0  0  0
   14.4016   -5.6598    0.8556 H   0  0  0  0  0  0  0  0  0  0  0  0
   12.3941   -5.8035    3.1472 H   0  0  0  0  0  0  0  0  0  0  0  0
   11.9306   -7.9079    3.9970 H   0  0  0  0  0  0  0  0  0  0  0  0
   12.0670  -10.3741    3.8469 H   0  0  0  0  0  0  0  0  0  0  0  0
   12.9662  -11.4413    1.8110 H   0  0  0  0  0  0  0  0  0  0  0  0
   13.7056  -10.0597   -0.0994 H   0  0  0  0  0  0  0  0  0  0  0  0
   13.5681   -7.5970    0.0442 H   0  0  0  0  0  0  0  0  0  0  0  0
   10.7421   -4.3729   -0.9332 H   0  0  0  0  0  0  0  0  0  0  0  0
    9.8320   -3.8080    0.5087 H   0  0  0  0  0  0  0  0  0  0  0  0
   10.0264   -2.0509   -1.1942 H   0  0  0  0  0  0  0  0  0  0  0  0
   13.6491   -1.3530    0.9756 H   0  0  0  0  0  0  0  0  0  0  0  0
   14.9519   -3.4447    1.5996 H   0  0  0  0  0  0  0  0  0  0  0  0
  1  2  2  0  0  0  0
  2  3  1  0  0  0  0
  2  8  1  0  0  0  0
  3  4  1  0  0  0  0
  4  5  1  0  0  0  0
  5  6  1  0  0  0  0
  6  7  1  0  0  0  0
  8  9  1  0  0  0  0
  9 10  1  0  0  0  0
 10 11  1  0  0  0  0
 10 33  1  0  0  0  0
 11 12  1  0  0  0  0
 12 13  1  0  0  0  0
 13 14  1  0  0  0  0
 13 32  1  0  0  0  0
 14 15  1  0  0  0  0
 14 21  1  0  0  0  0
 15 16  2  0  0  0  0
 15 20  1  0  0  0  0
 16 17  1  0  0  0  0
 17 18  2  0  0  0  0
 18 19  1  0  0  0  0
 19 20  2  0  0  0  0
 21 22  2  0  0  0  0
 22 23  1  0  0  0  0
 22 31  1  0  0  0  0
 23 24  1  0  0  0  0
 24 25  2  0  0  0  0
 25 26  1  0  0  0  0
 25 30  1  0  0  0  0
 26 27  1  0  0  0  0
 26 28  1  0  0  0  0
 26 29  1  0  0  0  0
 30 31  2  0  0  0  0
 31 32  1  0  0  0  0
 32 33  1  0  0  0  0
  3 34  1  0  0  0  0
  4 35  1  0  0  0  0
  4 36  1  0  0  0  0
  5 37  1  0  0  0  0
  5 38  1  0  0  0  0
  6 39  1  0  0  0  0
  6 40  1  0  0  0  0
  7 41  1  0  0  0  0
  8 42  1  0  0  0  0
  9 43  1  0  0  0  0
  9 44  1  0  0  0  0
 10 45  1  0  0  0  0
 11 46  1  0  0  0  0
 11 47  1  0  0  0  0
 12 48  1  0  0  0  0
 12 49  1  0  0  0  0
 13 50  1  0  0  0  0
 14 51  1  0  0  0  0
 16 52  1  0  0  0  0
 17 53  1  0  0  0  0
 18 54  1  0  0  0  0
 19 55  1  0  0  0  0
 20 56  1  0  0  0  0
 23 57  1  0  0  0  0
 23 58  1  0  0  0  0
 24 59  1  0  0  0  0
 30 60  1  0  0  0  0
 32 61  1  0  0  0  0
M  END
> <ID>
CHEMBL1085895

> <IC50[nM]>
11

$$$$
CHEMBL1085895
  -OEChem-05192314313D
 Structure written by MMmdl.
 61 64  0     1  0  0  0  0  0999 V2000
   16.4467   -4.4109    7.4249 O   0  0  0  0  0  0  0  0  0  0  0  0
   15.2351   -4.6139    7.4730 C   0  0  0  0  0  0  0  0  0  0  0  0
   14.6650   -5.5529    8.2387 N   0  0  0  0  0  0  0  0  0  0  0  0
   15.3869   -6.4361    9.1585 C   0  0  0  0  0  0  0  0  0  0  0  0
   15.2668   -6.0328   10.6455 C   0  0  0  0  0  0  0  0  0  0  0  0
   13.8226   -5.9803   11.1627 C   0  0  0  0  0  0  0  0  0  0  0  0
   13.1566   -4.8684   10.5881 O   0  0  0  0  0  0  0  0  0  0  0  0
   14.3343   -3.9820    6.7011 N   0  0  0  0  0  0  0  0  0  0  0  0
   14.6936   -3.0974    5.5864 C   0  0  0  0  0  0  0  0  0  0  0  0
   14.8991   -3.7794    4.2042 C   0  0  1  0  0  0  0  0  0  0  0  0
   15.0796   -5.3216    4.2396 C   0  0  0  0  0  0  0  0  0  0  0  0
   15.2170   -5.9056    2.8282 C   0  0  0  0  0  0  0  0  0  0  0  0
   14.0982   -5.4118    1.8834 C   0  0  1  0  0  0  0  0  0  0  0  0
   12.7071   -6.0676    2.1263 C   0  0  2  0  0  0  0  0  0  0  0  0
   12.7538   -7.5905    2.0348 C   0  0  0  0  0  0  0  0  0  0  0  0
   12.3222   -8.3753    3.1056 C   0  0  0  0  0  0  0  0  0  0  0  0
   12.3985   -9.7635    3.0200 C   0  0  0  0  0  0  0  0  0  0  0  0
   12.9019  -10.3648    1.8691 C   0  0  0  0  0  0  0  0  0  0  0  0
   13.3224   -9.5891    0.7939 C   0  0  0  0  0  0  0  0  0  0  0  0
   13.2458   -8.2037    0.8776 C   0  0  0  0  0  0  0  0  0  0  0  0
   11.7300   -5.5199    1.1852 N   0  0  0  0  0  0  0  0  0  0  0  0
   11.7894   -4.1781    0.7704 C   0  0  0  0  0  0  0  0  0  0  0  0
   10.7703   -3.7089   -0.0567 C   0  0  0  0  0  0  0  0  0  0  0  0
   10.8105   -2.4059   -0.5418 C   0  0  0  0  0  0  0  0  0  0  0  0
   11.8590   -1.5551   -0.1897 C   0  0  0  0  0  0  0  0  0  0  0  0
   11.9086   -0.1381   -0.7474 C   0  0  0  0  0  0  0  0  0  0  0  0
   10.6756    0.3312   -0.9261 F   0  0  0  0  0  0  0  0  0  0  0  0
   12.5656    0.6893    0.0654 F   0  0  0  0  0  0  0  0  0  0  0  0
   12.5316   -0.1600   -1.9259 F   0  0  0  0  0  0  0  0  0  0  0  0
   12.8601   -2.0232    0.6679 C   0  0  0  0  0  0  0  0  0  0  0  0
   12.8600   -3.3430    1.1355 C   0  0  0  0  0  0  0  0  0  0  0  0
   14.0117   -3.8696    1.9810 C   0  0  1  0  0  0  0  0  0  0  0  0
   13.8055   -3.4605    3.3355 O   0  0  0  0  0  0  0  0  0  0  0  0
   16.6255   -3.7013    6.8191 H   0  0  0  0  0  0  0  0  0  0  0  0
   13.6725   -5.6594    8.1783 H   0  0  0  0  0  0  0  0  0  0  0  0
   14.9881   -7.4548    9.0436 H   0  0  0  0  0  0  0  0  0  0  0  0
   16.4517   -6.4260    8.8828 H   0  0  0  0  0  0  0  0  0  0  0  0
   15.8240   -6.7648   11.2486 H   0  0  0  0  0  0  0  0  0  0  0  0
   15.7158   -5.0365   10.7712 H   0  0  0  0  0  0  0  0  0  0  0  0
   13.2988   -6.9064   10.8832 H   0  0  0  0  0  0  0  0  0  0  0  0
   13.8285   -5.8786   12.2580 H   0  0  0  0  0  0  0  0  0  0  0  0
   12.2625   -4.8346   10.9074 H   0  0  0  0  0  0  0  0  0  0  0  0
   13.8909   -2.3533    5.4769 H   0  0  0  0  0  0  0  0  0  0  0  0
   15.6319   -2.5882    5.8517 H   0  0  0  0  0  0  0  0  0  0  0  0
   15.8195   -3.3587    3.7732 H   0  0  0  0  0  0  0  0  0  0  0  0
   15.9855   -5.5620    4.8153 H   0  0  0  0  0  0  0  0  0  0  0  0
   14.2037   -5.7725    4.7290 H   0  0  0  0  0  0  0  0  0  0  0  0
   16.1903   -5.6048    2.4131 H   0  0  0  0  0  0  0  0  0  0  0  0
   15.1688   -7.0027    2.8920 H   0  0  0  0  0  0  0  0  0  0  0  0
   14.4016   -5.6598    0.8556 H   0  0  0  0  0  0  0  0  0  0  0  0
   12.3941   -5.8035    3.1472 H   0  0  0  0  0  0  0  0  0  0  0  0
   11.9306   -7.9079    3.9970 H   0  0  0  0  0  0  0  0  0  0  0  0
   12.0670  -10.3741    3.8469 H   0  0  0  0  0  0  0  0  0  0  0  0
   12.9662  -11.4413    1.8110 H   0  0  0  0  0  0  0  0  0  0  0  0
   13.7056  -10.0597   -0.0994 H   0  0  0  0  0  0  0  0  0  0  0  0
   13.5681   -7.5970    0.0442 H   0  0  0  0  0  0  0  0  0  0  0  0
    9.9485   -4.3578   -0.3212 H   0  0  0  0  0  0  0  0  0  0  0  0
   10.0264   -2.0509   -1.1942 H   0  0  0  0  0  0  0  0  0  0  0  0
   11.2816   -1.1971    0.6754 H   0  0  0  0  0  0  0  0  0  0  0  0
   13.6491   -1.3530    0.9756 H   0  0  0  0  0  0  0  0  0  0  0  0
   14.9519   -3.4447    1.5996 H   0  0  0  0  0  0  0  0  0  0  0  0
  1  2  1  0  0  0  0
  2  3  1  0  0  0  0
  2  8  2  0  0  0  0
  3  4  1  0  0  0  0
  4  5  1  0  0  0  0
  5  6  1  0  0  0  0
  6  7  1  0  0  0  0
  8  9  1  0  0  0  0
  9 10  1  0  0  0  0
 10 11  1  0  0  0  0
 10 33  1  0  0  0  0
 11 12  1  0  0  0  0
 12 13  1  0  0  0  0
 13 14  1  0  0  0  0
 13 32  1  0  0  0  0
 14 15  1  0  0  0  0
 14 21  1  0  0  0  0
 15 16  2  0  0  0  0
 15 20  1  0  0  0  0
 16 17  1  0  0  0  0
 17 18  2  0  0  0  0
 18 19  1  0  0  0  0
 19 20  2  0  0  0  0
 21 22  2  0  0  0  0
 22 23  1  0  0  0  0
 22 31  1  0  0  0  0
 23 24  2  0  0  0  0
 24 25  1  0  0  0  0
 25 26  1  0  0  0  0
 25 30  1  0  0  0  0
 26 27  1  0  0  0  0
 26 28  1  0  0  0  0
 26 29  1  0  0  0  0
 30 31  2  0  0  0  0
 31 32  1  0  0  0  0
 32 33  1  0  0  0  0
  1 34  1  0  0  0  0
  3 35  1  0  0  0  0
  4 36  1  0  0  0  0
  4 37  1  0  0  0  0
  5 38  1  0  0  0  0
  5 39  1  0  0  0  0
  6 40  1  0  0  0  0
  6 41  1  0  0  0  0
  7 42  1  0  0  0  0
  9 43  1  0  0  0  0
  9 44  1  0  0  0  0
 10 45  1  0  0  0  0
 11 46  1  0  0  0  0
 11 47  1  0  0  0  0
 12 48  1  0  0  0  0
 12 49  1  0  0  0  0
 13 50  1  0  0  0  0
 14 51  1  0  0  0  0
 16 52  1  0  0  0  0
 17 53  1  0  0  0  0
 18 54  1  0  0  0  0
 19 55  1  0  0  0  0
 20 56  1  0  0  0  0
 23 57  1  0  0  0  0
 24 58  1  0  0  0  0
 25 59  1  0  0  0  0
 30 60  1  0  0  0  0
 32 61  1  0  0  0  0
M  END
> <ID>
CHEMBL1085895

> <IC50[nM]>
11

$$$$
CHEMBL1085895
  -OEChem-05192314313D
 Structure written by MMmdl.
 61 64  0     1  0  0  0  0  0999 V2000
   16.4467   -4.4109    7.4249 O   0  0  0  0  0  0  0  0  0  0  0  0
   15.2351   -4.6139    7.4730 C   0  0  0  0  0  0  0  0  0  0  0  0
   14.6650   -5.5529    8.2387 N   0  0  0  0  0  0  0  0  0  0  0  0
   15.3869   -6.4361    9.1585 C   0  0  0  0  0  0  0  0  0  0  0  0
   15.2668   -6.0328   10.6455 C   0  0  0  0  0  0  0  0  0  0  0  0
   13.8226   -5.9803   11.1627 C   0  0  0  0  0  0  0  0  0  0  0  0
   13.1566   -4.8684   10.5881 O   0  0  0  0  0  0  0  0  0  0  0  0
   14.3343   -3.9820    6.7011 N   0  0  0  0  0  0  0  0  0  0  0  0
   14.6936   -3.0974    5.5864 C   0  0  0  0  0  0  0  0  0  0  0  0
   14.8991   -3.7794    4.2042 C   0  0  1  0  0  0  0  0  0  0  0  0
   15.0796   -5.3216    4.2396 C   0  0  0  0  0  0  0  0  0  0  0  0
   15.2170   -5.9056    2.8282 C   0  0  0  0  0  0  0  0  0  0  0  0
   14.0982   -5.4118    1.8834 C   0  0  1  0  0  0  0  0  0  0  0  0
   12.7071   -6.0676    2.1263 C   0  0  2  0  0  0  0  0  0  0  0  0
   12.7538   -7.5905    2.0348 C   0  0  0  0  0  0  0  0  0  0  0  0
   12.3222   -8.3753    3.1056 C   0  0  0  0  0  0  0  0  0  0  0  0
   12.3985   -9.7635    3.0200 C   0  0  0  0  0  0  0  0  0  0  0  0
   12.9019  -10.3648    1.8691 C   0  0  0  0  0  0  0  0  0  0  0  0
   13.3224   -9.5891    0.7939 C   0  0  0  0  0  0  0  0  0  0  0  0
   13.2458   -8.2037    0.8776 C   0  0  0  0  0  0  0  0  0  0  0  0
   11.7300   -5.5199    1.1852 N   0  0  0  0  0  0  0  0  0  0  0  0
   11.7894   -4.1781    0.7704 C   0  0  0  0  0  0  0  0  0  0  0  0
   10.7703   -3.7089   -0.0567 C   0  0  0  0  0  0  0  0  0  0  0  0
   10.8105   -2.4059   -0.5418 C   0  0  0  0  0  0  0  0  0  0  0  0
   11.8590   -1.5551   -0.1897 C   0  0  0  0  0  0  0  0  0  0  0  0
   11.9086   -0.1381   -0.7474 C   0  0  0  0  0  0  0  0  0  0  0  0
   10.6756    0.3312   -0.9261 F   0  0  0  0  0  0  0  0  0  0  0  0
   12.5656    0.6893    0.0654 F   0  0  0  0  0  0  0  0  0  0  0  0
   12.5316   -0.1600   -1.9259 F   0  0  0  0  0  0  0  0  0  0  0  0
   12.8601   -2.0232    0.6679 C   0  0  0  0  0  0  0  0  0  0  0  0
   12.8600   -3.3430    1.1355 C   0  0  0  0  0  0  0  0  0  0  0  0
   14.0117   -3.8696    1.9810 C   0  0  1  0  0  0  0  0  0  0  0  0
   13.8055   -3.4605    3.3355 O   0  0  0  0  0  0  0  0  0  0  0  0
   16.6255   -3.7013    6.8191 H   0  0  0  0  0  0  0  0  0  0  0  0
   13.6725   -5.6594    8.1783 H   0  0  0  0  0  0  0  0  0  0  0  0
   14.9881   -7.4548    9.0436 H   0  0  0  0  0  0  0  0  0  0  0  0
   16.4517   -6.4260    8.8828 H   0  0  0  0  0  0  0  0  0  0  0  0
   15.8240   -6.7648   11.2486 H   0  0  0  0  0  0  0  0  0  0  0  0
   15.7158   -5.0365   10.7712 H   0  0  0  0  0  0  0  0  0  0  0  0
   13.2988   -6.9064   10.8832 H   0  0  0  0  0  0  0  0  0  0  0  0
   13.8285   -5.8786   12.2580 H   0  0  0  0  0  0  0  0  0  0  0  0
   12.2625   -4.8346   10.9074 H   0  0  0  0  0  0  0  0  0  0  0  0
   13.8909   -2.3533    5.4769 H   0  0  0  0  0  0  0  0  0  0  0  0
   15.6319   -2.5882    5.8517 H   0  0  0  0  0  0  0  0  0  0  0  0
   15.8195   -3.3587    3.7732 H   0  0  0  0  0  0  0  0  0  0  0  0
   15.9855   -5.5620    4.8153 H   0  0  0  0  0  0  0  0  0  0  0  0
   14.2037   -5.7725    4.7290 H   0  0  0  0  0  0  0  0  0  0  0  0
   16.1903   -5.6048    2.4131 H   0  0  0  0  0  0  0  0  0  0  0  0
   15.1688   -7.0027    2.8920 H   0  0  0  0  0  0  0  0  0  0  0  0
   14.4016   -5.6598    0.8556 H   0  0  0  0  0  0  0  0  0  0  0  0
   12.3941   -5.8035    3.1472 H   0  0  0  0  0  0  0  0  0  0  0  0
   11.9306   -7.9079    3.9970 H   0  0  0  0  0  0  0  0  0  0  0  0
   12.0670  -10.3741    3.8469 H   0  0  0  0  0  0  0  0  0  0  0  0
   12.9662  -11.4413    1.8110 H   0  0  0  0  0  0  0  0  0  0  0  0
   13.7056  -10.0597   -0.0994 H   0  0  0  0  0  0  0  0  0  0  0  0
   13.5681   -7.5970    0.0442 H   0  0  0  0  0  0  0  0  0  0  0  0
    9.9485   -4.3578   -0.3212 H   0  0  0  0  0  0  0  0  0  0  0  0
   10.0264   -2.0509   -1.1942 H   0  0  0  0  0  0  0  0  0  0  0  0
   13.6491   -1.3530    0.9756 H   0  0  0  0  0  0  0  0  0  0  0  0
   12.3223   -3.0326    2.0435 H   0  0  0  0  0  0  0  0  0  0  0  0
   14.9519   -3.4447    1.5996 H   0  0  0  0  0  0  0  0  0  0  0  0
  1  2  1  0  0  0  0
  2  3  1  0  0  0  0
  2  8  2  0  0  0  0
  3  4  1  0  0  0  0
  4  5  1  0  0  0  0
  5  6  1  0  0  0  0
  6  7  1  0  0  0  0
  8  9  1  0  0  0  0
  9 10  1  0  0  0  0
 10 11  1  0  0  0  0
 10 33  1  0  0  0  0
 11 12  1  0  0  0  0
 12 13  1  0  0  0  0
 13 14  1  0  0  0  0
 13 32  1  0  0  0  0
 14 15  1  0  0  0  0
 14 21  1  0  0  0  0
 15 16  2  0  0  0  0
 15 20  1  0  0  0  0
 16 17  1  0  0  0  0
 17 18  2  0  0  0  0
 18 19  1  0  0  0  0
 19 20  2  0  0  0  0
 21 22  2  0  0  0  0
 22 23  1  0  0  0  0
 22 31  1  0  0  0  0
 23 24  2  0  0  0  0
 24 25  1  0  0  0  0
 25 26  1  0  0  0  0
 25 30  2  0  0  0  0
 26 27  1  0  0  0  0
 26 28  1  0  0  0  0
 26 29  1  0  0  0  0
 30 31  1  0  0  0  0
 31 32  1  0  0  0  0
 32 33  1  0  0  0  0
  1 34  1  0  0  0  0
  3 35  1  0  0  0  0
  4 36  1  0  0  0  0
  4 37  1  0  0  0  0
  5 38  1  0  0  0  0
  5 39  1  0  0  0  0
  6 40  1  0  0  0  0
  6 41  1  0  0  0  0
  7 42  1  0  0  0  0
  9 43  1  0  0  0  0
  9 44  1  0  0  0  0
 10 45  1  0  0  0  0
 11 46  1  0  0  0  0
 11 47  1  0  0  0  0
 12 48  1  0  0  0  0
 12 49  1  0  0  0  0
 13 50  1  0  0  0  0
 14 51  1  0  0  0  0
 16 52  1  0  0  0  0
 17 53  1  0  0  0  0
 18 54  1  0  0  0  0
 19 55  1  0  0  0  0
 20 56  1  0  0  0  0
 23 57  1  0  0  0  0
 24 58  1  0  0  0  0
 30 59  1  0  0  0  0
 31 60  1  0  0  0  0
 32 61  1  0  0  0  0
M  END
> <ID>
CHEMBL1085895

> <IC50[nM]>
11

$$$$
CHEMBL1085895
  -OEChem-05192314313D
 Structure written by MMmdl.
 61 64  0     1  0  0  0  0  0999 V2000
   16.4467   -4.4109    7.4249 O   0  0  0  0  0  0  0  0  0  0  0  0
   15.2351   -4.6139    7.4730 C   0  0  0  0  0  0  0  0  0  0  0  0
   14.6650   -5.5529    8.2387 N   0  0  0  0  0  0  0  0  0  0  0  0
   15.3869   -6.4361    9.1585 C   0  0  0  0  0  0  0  0  0  0  0  0
   15.2668   -6.0328   10.6455 C   0  0  0  0  0  0  0  0  0  0  0  0
   13.8226   -5.9803   11.1627 C   0  0  0  0  0  0  0  0  0  0  0  0
   13.1566   -4.8684   10.5881 O   0  0  0  0  0  0  0  0  0  0  0  0
   14.3343   -3.9820    6.7011 N   0  0  0  0  0  0  0  0  0  0  0  0
   14.6936   -3.0974    5.5864 C   0  0  0  0  0  0  0  0  0  0  0  0
   14.8991   -3.7794    4.2042 C   0  0  1  0  0  0  0  0  0  0  0  0
   15.0796   -5.3216    4.2396 C   0  0  0  0  0  0  0  0  0  0  0  0
   15.2170   -5.9056    2.8282 C   0  0  0  0  0  0  0  0  0  0  0  0
   14.0982   -5.4118    1.8834 C   0  0  1  0  0  0  0  0  0  0  0  0
   12.7071   -6.0676    2.1263 C   0  0  2  0  0  0  0  0  0  0  0  0
   12.7538   -7.5905    2.0348 C   0  0  0  0  0  0  0  0  0  0  0  0
   12.3222   -8.3753    3.1056 C   0  0  0  0  0  0  0  0  0  0  0  0
   12.3985   -9.7635    3.0200 C   0  0  0  0  0  0  0  0  0  0  0  0
   12.9019  -10.3648    1.8691 C   0  0  0  0  0  0  0  0  0  0  0  0
   13.3224   -9.5891    0.7939 C   0  0  0  0  0  0  0  0  0  0  0  0
   13.2458   -8.2037    0.8776 C   0  0  0  0  0  0  0  0  0  0  0  0
   11.7300   -5.5199    1.1852 N   0  0  0  0  0  0  0  0  0  0  0  0
   11.7894   -4.1781    0.7704 C   0  0  0  0  0  0  0  0  0  0  0  0
   10.7703   -3.7089   -0.0567 C   0  0  0  0  0  0  0  0  0  0  0  0
   10.8105   -2.4059   -0.5418 C   0  0  0  0  0  0  0  0  0  0  0  0
   11.8590   -1.5551   -0.1897 C   0  0  0  0  0  0  0  0  0  0  0  0
   11.9086   -0.1381   -0.7474 C   0  0  0  0  0  0  0  0  0  0  0  0
   10.6756    0.3312   -0.9261 F   0  0  0  0  0  0  0  0  0  0  0  0
   12.5656    0.6893    0.0654 F   0  0  0  0  0  0  0  0  0  0  0  0
   12.5316   -0.1600   -1.9259 F   0  0  0  0  0  0  0  0  0  0  0  0
   12.8601   -2.0232    0.6679 C   0  0  0  0  0  0  0  0  0  0  0  0
   12.8600   -3.3430    1.1355 C   0  0  0  0  0  0  0  0  0  0  0  0
   14.0117   -3.8696    1.9810 C   0  0  1  0  0  0  0  0  0  0  0  0
   13.8055   -3.4605    3.3355 O   0  0  0  0  0  0  0  0  0  0  0  0
   16.6255   -3.7013    6.8191 H   0  0  0  0  0  0  0  0  0  0  0  0
   13.6725   -5.6594    8.1783 H   0  0  0  0  0  0  0  0  0  0  0  0
   14.9881   -7.4548    9.0436 H   0  0  0  0  0  0  0  0  0  0  0  0
   16.4517   -6.4260    8.8828 H   0  0  0  0  0  0  0  0  0  0  0  0
   15.8240   -6.7648   11.2486 H   0  0  0  0  0  0  0  0  0  0  0  0
   15.7158   -5.0365   10.7712 H   0  0  0  0  0  0  0  0  0  0  0  0
   13.2988   -6.9064   10.8832 H   0  0  0  0  0  0  0  0  0  0  0  0
   13.8285   -5.8786   12.2580 H   0  0  0  0  0  0  0  0  0  0  0  0
   12.2625   -4.8346   10.9074 H   0  0  0  0  0  0  0  0  0  0  0  0
   13.8909   -2.3533    5.4769 H   0  0  0  0  0  0  0  0  0  0  0  0
   15.6319   -2.5882    5.8517 H   0  0  0  0  0  0  0  0  0  0  0  0
   15.8195   -3.3587    3.7732 H   0  0  0  0  0  0  0  0  0  0  0  0
   15.9855   -5.5620    4.8153 H   0  0  0  0  0  0  0  0  0  0  0  0
   14.2037   -5.7725    4.7290 H   0  0  0  0  0  0  0  0  0  0  0  0
   16.1903   -5.6048    2.4131 H   0  0  0  0  0  0  0  0  0  0  0  0
   15.1688   -7.0027    2.8920 H   0  0  0  0  0  0  0  0  0  0  0  0
   14.4016   -5.6598    0.8556 H   0  0  0  0  0  0  0  0  0  0  0  0
   12.3941   -5.8035    3.1472 H   0  0  0  0  0  0  0  0  0  0  0  0
   11.9306   -7.9079    3.9970 H   0  0  0  0  0  0  0  0  0  0  0  0
   12.0670  -10.3741    3.8469 H   0  0  0  0  0  0  0  0  0  0  0  0
   12.9662  -11.4413    1.8110 H   0  0  0  0  0  0  0  0  0  0  0  0
   13.7056  -10.0597   -0.0994 H   0  0  0  0  0  0  0  0  0  0  0  0
   13.5681   -7.5970    0.0442 H   0  0  0  0  0  0  0  0  0  0  0  0
   10.7421   -4.3729   -0.9332 H   0  0  0  0  0  0  0  0  0  0  0  0
    9.8320   -3.8080    0.5087 H   0  0  0  0  0  0  0  0  0  0  0  0
   10.0264   -2.0509   -1.1942 H   0  0  0  0  0  0  0  0  0  0  0  0
   13.6491   -1.3530    0.9756 H   0  0  0  0  0  0  0  0  0  0  0  0
   14.9519   -3.4447    1.5996 H   0  0  0  0  0  0  0  0  0  0  0  0
  1  2  1  0  0  0  0
  2  3  1  0  0  0  0
  2  8  2  0  0  0  0
  3  4  1  0  0  0  0
  4  5  1  0  0  0  0
  5  6  1  0  0  0  0
  6  7  1  0  0  0  0
  8  9  1  0  0  0  0
  9 10  1  0  0  0  0
 10 11  1  0  0  0  0
 10 33  1  0  0  0  0
 11 12  1  0  0  0  0
 12 13  1  0  0  0  0
 13 14  1  0  0  0  0
 13 32  1  0  0  0  0
 14 15  1  0  0  0  0
 14 21  1  0  0  0  0
 15 16  2  0  0  0  0
 15 20  1  0  0  0  0
 16 17  1  0  0  0  0
 17 18  2  0  0  0  0
 18 19  1  0  0  0  0
 19 20  2  0  0  0  0
 21 22  2  0  0  0  0
 22 23  1  0  0  0  0
 22 31  1  0  0  0  0
 23 24  1  0  0  0  0
 24 25  2  0  0  0  0
 25 26  1  0  0  0  0
 25 30  1  0  0  0  0
 26 27  1  0  0  0  0
 26 28  1  0  0  0  0
 26 29  1  0  0  0  0
 30 31  2  0  0  0  0
 31 32  1  0  0  0  0
 32 33  1  0  0  0  0
  1 34  1  0  0  0  0
  3 35  1  0  0  0  0
  4 36  1  0  0  0  0
  4 37  1  0  0  0  0
  5 38  1  0  0  0  0
  5 39  1  0  0  0  0
  6 40  1  0  0  0  0
  6 41  1  0  0  0  0
  7 42  1  0  0  0  0
  9 43  1  0  0  0  0
  9 44  1  0  0  0  0
 10 45  1  0  0  0  0
 11 46  1  0  0  0  0
 11 47  1  0  0  0  0
 12 48  1  0  0  0  0
 12 49  1  0  0  0  0
 13 50  1  0  0  0  0
 14 51  1  0  0  0  0
 16 52  1  0  0  0  0
 17 53  1  0  0  0  0
 18 54  1  0  0  0  0
 19 55  1  0  0  0  0
 20 56  1  0  0  0  0
 23 57  1  0  0  0  0
 23 58  1  0  0  0  0
 24 59  1  0  0  0  0
 30 60  1  0  0  0  0
 32 61  1  0  0  0  0
M  END
> <ID>
CHEMBL1085895

> <IC50[nM]>
11

$$$$
CHEMBL1085895
  -OEChem-05192314313D
 Structure written by MMmdl.
 61 64  0     1  0  0  0  0  0999 V2000
   16.4467   -4.4109    7.4249 O   0  0  0  0  0  0  0  0  0  0  0  0
   15.2351   -4.6139    7.4730 C   0  0  0  0  0  0  0  0  0  0  0  0
   14.6650   -5.5529    8.2387 N   0  0  0  0  0  0  0  0  0  0  0  0
   15.3869   -6.4361    9.1585 C   0  0  0  0  0  0  0  0  0  0  0  0
   15.2668   -6.0328   10.6455 C   0  0  0  0  0  0  0  0  0  0  0  0
   13.8226   -5.9803   11.1627 C   0  0  0  0  0  0  0  0  0  0  0  0
   13.1566   -4.8684   10.5881 O   0  0  0  0  0  0  0  0  0  0  0  0
   14.3343   -3.9820    6.7011 N   0  0  0  0  0  0  0  0  0  0  0  0
   14.6936   -3.0974    5.5864 C   0  0  0  0  0  0  0  0  0  0  0  0
   14.8991   -3.7794    4.2042 C   0  0  1  0  0  0  0  0  0  0  0  0
   15.0796   -5.3216    4.2396 C   0  0  0  0  0  0  0  0  0  0  0  0
   15.2170   -5.9056    2.8282 C   0  0  0  0  0  0  0  0  0  0  0  0
   14.0982   -5.4118    1.8834 C   0  0  1  0  0  0  0  0  0  0  0  0
   12.7071   -6.0676    2.1263 C   0  0  2  0  0  0  0  0  0  0  0  0
   12.7538   -7.5905    2.0348 C   0  0  0  0  0  0  0  0  0  0  0  0
   12.3222   -8.3753    3.1056 C   0  0  0  0  0  0  0  0  0  0  0  0
   12.3985   -9.7635    3.0200 C   0  0  0  0  0  0  0  0  0  0  0  0
   12.9019  -10.3648    1.8691 C   0  0  0  0  0  0  0  0  0  0  0  0
   13.3224   -9.5891    0.7939 C   0  0  0  0  0  0  0  0  0  0  0  0
   13.2458   -8.2037    0.8776 C   0  0  0  0  0  0  0  0  0  0  0  0
   11.7300   -5.5199    1.1852 N   0  0  0  0  0  0  0  0  0  0  0  0
   11.7894   -4.1781    0.7704 C   0  0  0  0  0  0  0  0  0  0  0  0
   10.7703   -3.7089   -0.0567 C   0  0  0  0  0  0  0  0  0  0  0  0
   10.8105   -2.4059   -0.5418 C   0  0  0  0  0  0  0  0  0  0  0  0
   11.8590   -1.5551   -0.1897 C   0  0  0  0  0  0  0  0  0  0  0  0
   11.9086   -0.1381   -0.7474 C   0  0  0  0  0  0  0  0  0  0  0  0
   10.6756    0.3312   -0.9261 F   0  0  0  0  0  0  0  0  0  0  0  0
   12.5656    0.6893    0.0654 F   0  0  0  0  0  0  0  0  0  0  0  0
   12.5316   -0.1600   -1.9259 F   0  0  0  0  0  0  0  0  0  0  0  0
   12.8601   -2.0232    0.6679 C   0  0  0  0  0  0  0  0  0  0  0  0
   12.8600   -3.3430    1.1355 C   0  0  0  0  0  0  0  0  0  0  0  0
   14.0117   -3.8696    1.9810 C   0  0  1  0  0  0  0  0  0  0  0  0
   13.8055   -3.4605    3.3355 O   0  0  0  0  0  0  0  0  0  0  0  0
   16.6255   -3.7013    6.8191 H   0  0  0  0  0  0  0  0  0  0  0  0
   14.9881   -7.4548    9.0436 H   0  0  0  0  0  0  0  0  0  0  0  0
   16.4517   -6.4260    8.8828 H   0  0  0  0  0  0  0  0  0  0  0  0
   15.8240   -6.7648   11.2486 H   0  0  0  0  0  0  0  0  0  0  0  0
   15.7158   -5.0365   10.7712 H   0  0  0  0  0  0  0  0  0  0  0  0
   13.2988   -6.9064   10.8832 H   0  0  0  0  0  0  0  0  0  0  0  0
   13.8285   -5.8786   12.2580 H   0  0  0  0  0  0  0  0  0  0  0  0
   12.2625   -4.8346   10.9074 H   0  0  0  0  0  0  0  0  0  0  0  0
   13.3639   -4.1226    6.8975 H   0  0  0  0  0  0  0  0  0  0  0  0
   13.8909   -2.3533    5.4769 H   0  0  0  0  0  0  0  0  0  0  0  0
   15.6319   -2.5882    5.8517 H   0  0  0  0  0  0  0  0  0  0  0  0
   15.8195   -3.3587    3.7732 H   0  0  0  0  0  0  0  0  0  0  0  0
   15.9855   -5.5620    4.8153 H   0  0  0  0  0  0  0  0  0  0  0  0
   14.2037   -5.7725    4.7290 H   0  0  0  0  0  0  0  0  0  0  0  0
   16.1903   -5.6048    2.4131 H   0  0  0  0  0  0  0  0  0  0  0  0
   15.1688   -7.0027    2.8920 H   0  0  0  0  0  0  0  0  0  0  0  0
   14.4016   -5.6598    0.8556 H   0  0  0  0  0  0  0  0  0  0  0  0
   12.3941   -5.8035    3.1472 H   0  0  0  0  0  0  0  0  0  0  0  0
   11.9306   -7.9079    3.9970 H   0  0  0  0  0  0  0  0  0  0  0  0
   12.0670  -10.3741    3.8469 H   0  0  0  0  0  0  0  0  0  0  0  0
   12.9662  -11.4413    1.8110 H   0  0  0  0  0  0  0  0  0  0  0  0
   13.7056  -10.0597   -0.0994 H   0  0  0  0  0  0  0  0  0  0  0  0
   13.5681   -7.5970    0.0442 H   0  0  0  0  0  0  0  0  0  0  0  0
    9.9485   -4.3578   -0.3212 H   0  0  0  0  0  0  0  0  0  0  0  0
   10.0264   -2.0509   -1.1942 H   0  0  0  0  0  0  0  0  0  0  0  0
   11.2816   -1.1971    0.6754 H   0  0  0  0  0  0  0  0  0  0  0  0
   13.6491   -1.3530    0.9756 H   0  0  0  0  0  0  0  0  0  0  0  0
   14.9519   -3.4447    1.5996 H   0  0  0  0  0  0  0  0  0  0  0  0
  1  2  1  0  0  0  0
  2  3  2  0  0  0  0
  2  8  1  0  0  0  0
  3  4  1  0  0  0  0
  4  5  1  0  0  0  0
  5  6  1  0  0  0  0
  6  7  1  0  0  0  0
  8  9  1  0  0  0  0
  9 10  1  0  0  0  0
 10 11  1  0  0  0  0
 10 33  1  0  0  0  0
 11 12  1  0  0  0  0
 12 13  1  0  0  0  0
 13 14  1  0  0  0  0
 13 32  1  0  0  0  0
 14 15  1  0  0  0  0
 14 21  1  0  0  0  0
 15 16  2  0  0  0  0
 15 20  1  0  0  0  0
 16 17  1  0  0  0  0
 17 18  2  0  0  0  0
 18 19  1  0  0  0  0
 19 20  2  0  0  0  0
 21 22  2  0  0  0  0
 22 23  1  0  0  0  0
 22 31  1  0  0  0  0
 23 24  2  0  0  0  0
 24 25  1  0  0  0  0
 25 26  1  0  0  0  0
 25 30  1  0  0  0  0
 26 27  1  0  0  0  0
 26 28  1  0  0  0  0
 26 29  1  0  0  0  0
 30 31  2  0  0  0  0
 31 32  1  0  0  0  0
 32 33  1  0  0  0  0
  1 34  1  0  0  0  0
  4 35  1  0  0  0  0
  4 36  1  0  0  0  0
  5 37  1  0  0  0  0
  5 38  1  0  0  0  0
  6 39  1  0  0  0  0
  6 40  1  0  0  0  0
  7 41  1  0  0  0  0
  8 42  1  0  0  0  0
  9 43  1  0  0  0  0
  9 44  1  0  0  0  0
 10 45  1  0  0  0  0
 11 46  1  0  0  0  0
 11 47  1  0  0  0  0
 12 48  1  0  0  0  0
 12 49  1  0  0  0  0
 13 50  1  0  0  0  0
 14 51  1  0  0  0  0
 16 52  1  0  0  0  0
 17 53  1  0  0  0  0
 18 54  1  0  0  0  0
 19 55  1  0  0  0  0
 20 56  1  0  0  0  0
 23 57  1  0  0  0  0
 24 58  1  0  0  0  0
 25 59  1  0  0  0  0
 30 60  1  0  0  0  0
 32 61  1  0  0  0  0
M  END
> <ID>
CHEMBL1085895

> <IC50[nM]>
11

$$$$
CHEMBL1085895
  -OEChem-05192314313D
 Structure written by MMmdl.
 61 64  0     1  0  0  0  0  0999 V2000
   16.4467   -4.4109    7.4249 O   0  0  0  0  0  0  0  0  0  0  0  0
   15.2351   -4.6139    7.4730 C   0  0  0  0  0  0  0  0  0  0  0  0
   14.6650   -5.5529    8.2387 N   0  0  0  0  0  0  0  0  0  0  0  0
   15.3869   -6.4361    9.1585 C   0  0  0  0  0  0  0  0  0  0  0  0
   15.2668   -6.0328   10.6455 C   0  0  0  0  0  0  0  0  0  0  0  0
   13.8226   -5.9803   11.1627 C   0  0  0  0  0  0  0  0  0  0  0  0
   13.1566   -4.8684   10.5881 O   0  0  0  0  0  0  0  0  0  0  0  0
   14.3343   -3.9820    6.7011 N   0  0  0  0  0  0  0  0  0  0  0  0
   14.6936   -3.0974    5.5864 C   0  0  0  0  0  0  0  0  0  0  0  0
   14.8991   -3.7794    4.2042 C   0  0  1  0  0  0  0  0  0  0  0  0
   15.0796   -5.3216    4.2396 C   0  0  0  0  0  0  0  0  0  0  0  0
   15.2170   -5.9056    2.8282 C   0  0  0  0  0  0  0  0  0  0  0  0
   14.0982   -5.4118    1.8834 C   0  0  1  0  0  0  0  0  0  0  0  0
   12.7071   -6.0676    2.1263 C   0  0  2  0  0  0  0  0  0  0  0  0
   12.7538   -7.5905    2.0348 C   0  0  0  0  0  0  0  0  0  0  0  0
   12.3222   -8.3753    3.1056 C   0  0  0  0  0  0  0  0  0  0  0  0
   12.3985   -9.7635    3.0200 C   0  0  0  0  0  0  0  0  0  0  0  0
   12.9019  -10.3648    1.8691 C   0  0  0  0  0  0  0  0  0  0  0  0
   13.3224   -9.5891    0.7939 C   0  0  0  0  0  0  0  0  0  0  0  0
   13.2458   -8.2037    0.8776 C   0  0  0  0  0  0  0  0  0  0  0  0
   11.7300   -5.5199    1.1852 N   0  0  0  0  0  0  0  0  0  0  0  0
   11.7894   -4.1781    0.7704 C   0  0  0  0  0  0  0  0  0  0  0  0
   10.7703   -3.7089   -0.0567 C   0  0  0  0  0  0  0  0  0  0  0  0
   10.8105   -2.4059   -0.5418 C   0  0  0  0  0  0  0  0  0  0  0  0
   11.8590   -1.5551   -0.1897 C   0  0  0  0  0  0  0  0  0  0  0  0
   11.9086   -0.1381   -0.7474 C   0  0  0  0  0  0  0  0  0  0  0  0
   10.6756    0.3312   -0.9261 F   0  0  0  0  0  0  0  0  0  0  0  0
   12.5656    0.6893    0.0654 F   0  0  0  0  0  0  0  0  0  0  0  0
   12.5316   -0.1600   -1.9259 F   0  0  0  0  0  0  0  0  0  0  0  0
   12.8601   -2.0232    0.6679 C   0  0  0  0  0  0  0  0  0  0  0  0
   12.8600   -3.3430    1.1355 C   0  0  0  0  0  0  0  0  0  0  0  0
   14.0117   -3.8696    1.9810 C   0  0  1  0  0  0  0  0  0  0  0  0
   13.8055   -3.4605    3.3355 O   0  0  0  0  0  0  0  0  0  0  0  0
   16.6255   -3.7013    6.8191 H   0  0  0  0  0  0  0  0  0  0  0  0
   14.9881   -7.4548    9.0436 H   0  0  0  0  0  0  0  0  0  0  0  0
   16.4517   -6.4260    8.8828 H   0  0  0  0  0  0  0  0  0  0  0  0
   15.8240   -6.7648   11.2486 H   0  0  0  0  0  0  0  0  0  0  0  0
   15.7158   -5.0365   10.7712 H   0  0  0  0  0  0  0  0  0  0  0  0
   13.2988   -6.9064   10.8832 H   0  0  0  0  0  0  0  0  0  0  0  0
   13.8285   -5.8786   12.2580 H   0  0  0  0  0  0  0  0  0  0  0  0
   12.2625   -4.8346   10.9074 H   0  0  0  0  0  0  0  0  0  0  0  0
   13.3639   -4.1226    6.8975 H   0  0  0  0  0  0  0  0  0  0  0  0
   13.8909   -2.3533    5.4769 H   0  0  0  0  0  0  0  0  0  0  0  0
   15.6319   -2.5882    5.8517 H   0  0  0  0  0  0  0  0  0  0  0  0
   15.8195   -3.3587    3.7732 H   0  0  0  0  0  0  0  0  0  0  0  0
   15.9855   -5.5620    4.8153 H   0  0  0  0  0  0  0  0  0  0  0  0
   14.2037   -5.7725    4.7290 H   0  0  0  0  0  0  0  0  0  0  0  0
   16.1903   -5.6048    2.4131 H   0  0  0  0  0  0  0  0  0  0  0  0
   15.1688   -7.0027    2.8920 H   0  0  0  0  0  0  0  0  0  0  0  0
   14.4016   -5.6598    0.8556 H   0  0  0  0  0  0  0  0  0  0  0  0
   12.3941   -5.8035    3.1472 H   0  0  0  0  0  0  0  0  0  0  0  0
   11.9306   -7.9079    3.9970 H   0  0  0  0  0  0  0  0  0  0  0  0
   12.0670  -10.3741    3.8469 H   0  0  0  0  0  0  0  0  0  0  0  0
   12.9662  -11.4413    1.8110 H   0  0  0  0  0  0  0  0  0  0  0  0
   13.7056  -10.0597   -0.0994 H   0  0  0  0  0  0  0  0  0  0  0  0
   13.5681   -7.5970    0.0442 H   0  0  0  0  0  0  0  0  0  0  0  0
    9.9485   -4.3578   -0.3212 H   0  0  0  0  0  0  0  0  0  0  0  0
   10.0264   -2.0509   -1.1942 H   0  0  0  0  0  0  0  0  0  0  0  0
   13.6491   -1.3530    0.9756 H   0  0  0  0  0  0  0  0  0  0  0  0
   12.3223   -3.0326    2.0435 H   0  0  0  0  0  0  0  0  0  0  0  0
   14.9519   -3.4447    1.5996 H   0  0  0  0  0  0  0  0  0  0  0  0
  1  2  1  0  0  0  0
  2  3  2  0  0  0  0
  2  8  1  0  0  0  0
  3  4  1  0  0  0  0
  4  5  1  0  0  0  0
  5  6  1  0  0  0  0
  6  7  1  0  0  0  0
  8  9  1  0  0  0  0
  9 10  1  0  0  0  0
 10 11  1  0  0  0  0
 10 33  1  0  0  0  0
 11 12  1  0  0  0  0
 12 13  1  0  0  0  0
 13 14  1  0  0  0  0
 13 32  1  0  0  0  0
 14 15  1  0  0  0  0
 14 21  1  0  0  0  0
 15 16  2  0  0  0  0
 15 20  1  0  0  0  0
 16 17  1  0  0  0  0
 17 18  2  0  0  0  0
 18 19  1  0  0  0  0
 19 20  2  0  0  0  0
 21 22  2  0  0  0  0
 22 23  1  0  0  0  0
 22 31  1  0  0  0  0
 23 24  2  0  0  0  0
 24 25  1  0  0  0  0
 25 26  1  0  0  0  0
 25 30  2  0  0  0  0
 26 27  1  0  0  0  0
 26 28  1  0  0  0  0
 26 29  1  0  0  0  0
 30 31  1  0  0  0  0
 31 32  1  0  0  0  0
 32 33  1  0  0  0  0
  1 34  1  0  0  0  0
  4 35  1  0  0  0  0
  4 36  1  0  0  0  0
  5 37  1  0  0  0  0
  5 38  1  0  0  0  0
  6 39  1  0  0  0  0
  6 40  1  0  0  0  0
  7 41  1  0  0  0  0
  8 42  1  0  0  0  0
  9 43  1  0  0  0  0
  9 44  1  0  0  0  0
 10 45  1  0  0  0  0
 11 46  1  0  0  0  0
 11 47  1  0  0  0  0
 12 48  1  0  0  0  0
 12 49  1  0  0  0  0
 13 50  1  0  0  0  0
 14 51  1  0  0  0  0
 16 52  1  0  0  0  0
 17 53  1  0  0  0  0
 18 54  1  0  0  0  0
 19 55  1  0  0  0  0
 20 56  1  0  0  0  0
 23 57  1  0  0  0  0
 24 58  1  0  0  0  0
 30 59  1  0  0  0  0
 31 60  1  0  0  0  0
 32 61  1  0  0  0  0
M  END
> <ID>
CHEMBL1085895

> <IC50[nM]>
11

$$$$
CHEMBL1085895
  -OEChem-05192314313D
 Structure written by MMmdl.
 61 64  0     1  0  0  0  0  0999 V2000
   16.4467   -4.4109    7.4249 O   0  0  0  0  0  0  0  0  0  0  0  0
   15.2351   -4.6139    7.4730 C   0  0  0  0  0  0  0  0  0  0  0  0
   14.6650   -5.5529    8.2387 N   0  0  0  0  0  0  0  0  0  0  0  0
   15.3869   -6.4361    9.1585 C   0  0  0  0  0  0  0  0  0  0  0  0
   15.2668   -6.0328   10.6455 C   0  0  0  0  0  0  0  0  0  0  0  0
   13.8226   -5.9803   11.1627 C   0  0  0  0  0  0  0  0  0  0  0  0
   13.1566   -4.8684   10.5881 O   0  0  0  0  0  0  0  0  0  0  0  0
   14.3343   -3.9820    6.7011 N   0  0  0  0  0  0  0  0  0  0  0  0
   14.6936   -3.0974    5.5864 C   0  0  0  0  0  0  0  0  0  0  0  0
   14.8991   -3.7794    4.2042 C   0  0  1  0  0  0  0  0  0  0  0  0
   15.0796   -5.3216    4.2396 C   0  0  0  0  0  0  0  0  0  0  0  0
   15.2170   -5.9056    2.8282 C   0  0  0  0  0  0  0  0  0  0  0  0
   14.0982   -5.4118    1.8834 C   0  0  1  0  0  0  0  0  0  0  0  0
   12.7071   -6.0676    2.1263 C   0  0  2  0  0  0  0  0  0  0  0  0
   12.7538   -7.5905    2.0348 C   0  0  0  0  0  0  0  0  0  0  0  0
   12.3222   -8.3753    3.1056 C   0  0  0  0  0  0  0  0  0  0  0  0
   12.3985   -9.7635    3.0200 C   0  0  0  0  0  0  0  0  0  0  0  0
   12.9019  -10.3648    1.8691 C   0  0  0  0  0  0  0  0  0  0  0  0
   13.3224   -9.5891    0.7939 C   0  0  0  0  0  0  0  0  0  0  0  0
   13.2458   -8.2037    0.8776 C   0  0  0  0  0  0  0  0  0  0  0  0
   11.7300   -5.5199    1.1852 N   0  0  0  0  0  0  0  0  0  0  0  0
   11.7894   -4.1781    0.7704 C   0  0  0  0  0  0  0  0  0  0  0  0
   10.7703   -3.7089   -0.0567 C   0  0  0  0  0  0  0  0  0  0  0  0
   10.8105   -2.4059   -0.5418 C   0  0  0  0  0  0  0  0  0  0  0  0
   11.8590   -1.5551   -0.1897 C   0  0  0  0  0  0  0  0  0  0  0  0
   11.9086   -0.1381   -0.7474 C   0  0  0  0  0  0  0  0  0  0  0  0
   10.6756    0.3312   -0.9261 F   0  0  0  0  0  0  0  0  0  0  0  0
   12.5656    0.6893    0.0654 F   0  0  0  0  0  0  0  0  0  0  0  0
   12.5316   -0.1600   -1.9259 F   0  0  0  0  0  0  0  0  0  0  0  0
   12.8601   -2.0232    0.6679 C   0  0  0  0  0  0  0  0  0  0  0  0
   12.8600   -3.3430    1.1355 C   0  0  0  0  0  0  0  0  0  0  0  0
   14.0117   -3.8696    1.9810 C   0  0  1  0  0  0  0  0  0  0  0  0
   13.8055   -3.4605    3.3355 O   0  0  0  0  0  0  0  0  0  0  0  0
   16.6255   -3.7013    6.8191 H   0  0  0  0  0  0  0  0  0  0  0  0
   14.9881   -7.4548    9.0436 H   0  0  0  0  0  0  0  0  0  0  0  0
   16.4517   -6.4260    8.8828 H   0  0  0  0  0  0  0  0  0  0  0  0
   15.8240   -6.7648   11.2486 H   0  0  0  0  0  0  0  0  0  0  0  0
   15.7158   -5.0365   10.7712 H   0  0  0  0  0  0  0  0  0  0  0  0
   13.2988   -6.9064   10.8832 H   0  0  0  0  0  0  0  0  0  0  0  0
   13.8285   -5.8786   12.2580 H   0  0  0  0  0  0  0  0  0  0  0  0
   12.2625   -4.8346   10.9074 H   0  0  0  0  0  0  0  0  0  0  0  0
   13.3639   -4.1226    6.8975 H   0  0  0  0  0  0  0  0  0  0  0  0
   13.8909   -2.3533    5.4769 H   0  0  0  0  0  0  0  0  0  0  0  0
   15.6319   -2.5882    5.8517 H   0  0  0  0  0  0  0  0  0  0  0  0
   15.8195   -3.3587    3.7732 H   0  0  0  0  0  0  0  0  0  0  0  0
   15.9855   -5.5620    4.8153 H   0  0  0  0  0  0  0  0  0  0  0  0
   14.2037   -5.7725    4.7290 H   0  0  0  0  0  0  0  0  0  0  0  0
   16.1903   -5.6048    2.4131 H   0  0  0  0  0  0  0  0  0  0  0  0
   15.1688   -7.0027    2.8920 H   0  0  0  0  0  0  0  0  0  0  0  0
   14.4016   -5.6598    0.8556 H   0  0  0  0  0  0  0  0  0  0  0  0
   12.3941   -5.8035    3.1472 H   0  0  0  0  0  0  0  0  0  0  0  0
   11.9306   -7.9079    3.9970 H   0  0  0  0  0  0  0  0  0  0  0  0
   12.0670  -10.3741    3.8469 H   0  0  0  0  0  0  0  0  0  0  0  0
   12.9662  -11.4413    1.8110 H   0  0  0  0  0  0  0  0  0  0  0  0
   13.7056  -10.0597   -0.0994 H   0  0  0  0  0  0  0  0  0  0  0  0
   13.5681   -7.5970    0.0442 H   0  0  0  0  0  0  0  0  0  0  0  0
   10.7421   -4.3729   -0.9332 H   0  0  0  0  0  0  0  0  0  0  0  0
    9.8320   -3.8080    0.5087 H   0  0  0  0  0  0  0  0  0  0  0  0
   10.0264   -2.0509   -1.1942 H   0  0  0  0  0  0  0  0  0  0  0  0
   13.6491   -1.3530    0.9756 H   0  0  0  0  0  0  0  0  0  0  0  0
   14.9519   -3.4447    1.5996 H   0  0  0  0  0  0  0  0  0  0  0  0
  1  2  1  0  0  0  0
  2  3  2  0  0  0  0
  2  8  1  0  0  0  0
  3  4  1  0  0  0  0
  4  5  1  0  0  0  0
  5  6  1  0  0  0  0
  6  7  1  0  0  0  0
  8  9  1  0  0  0  0
  9 10  1  0  0  0  0
 10 11  1  0  0  0  0
 10 33  1  0  0  0  0
 11 12  1  0  0  0  0
 12 13  1  0  0  0  0
 13 14  1  0  0  0  0
 13 32  1  0  0  0  0
 14 15  1  0  0  0  0
 14 21  1  0  0  0  0
 15 16  2  0  0  0  0
 15 20  1  0  0  0  0
 16 17  1  0  0  0  0
 17 18  2  0  0  0  0
 18 19  1  0  0  0  0
 19 20  2  0  0  0  0
 21 22  2  0  0  0  0
 22 23  1  0  0  0  0
 22 31  1  0  0  0  0
 23 24  1  0  0  0  0
 24 25  2  0  0  0  0
 25 26  1  0  0  0  0
 25 30  1  0  0  0  0
 26 27  1  0  0  0  0
 26 28  1  0  0  0  0
 26 29  1  0  0  0  0
 30 31  2  0  0  0  0
 31 32  1  0  0  0  0
 32 33  1  0  0  0  0
  1 34  1  0  0  0  0
  4 35  1  0  0  0  0
  4 36  1  0  0  0  0
  5 37  1  0  0  0  0
  5 38  1  0  0  0  0
  6 39  1  0  0  0  0
  6 40  1  0  0  0  0
  7 41  1  0  0  0  0
  8 42  1  0  0  0  0
  9 43  1  0  0  0  0
  9 44  1  0  0  0  0
 10 45  1  0  0  0  0
 11 46  1  0  0  0  0
 11 47  1  0  0  0  0
 12 48  1  0  0  0  0
 12 49  1  0  0  0  0
 13 50  1  0  0  0  0
 14 51  1  0  0  0  0
 16 52  1  0  0  0  0
 17 53  1  0  0  0  0
 18 54  1  0  0  0  0
 19 55  1  0  0  0  0
 20 56  1  0  0  0  0
 23 57  1  0  0  0  0
 23 58  1  0  0  0  0
 24 59  1  0  0  0  0
 30 60  1  0  0  0  0
 32 61  1  0  0  0  0
M  END
> <ID>
CHEMBL1085895

> <IC50[nM]>
11

$$$$
