CHEMBL1089393
  -OEChem-05192314313D
 Structure written by MMmdl.
 39 42  0     1  0  0  0  0  0999 V2000
   14.8893   -3.7981    4.1945 C   0  0  0  0  0  0  0  0  0  0  0  0
   15.0804   -5.3249    4.2412 C   0  0  0  0  0  0  0  0  0  0  0  0
   15.2239   -5.9068    2.8287 C   0  0  0  0  0  0  0  0  0  0  0  0
   14.1049   -5.4146    1.8817 C   0  0  1  0  0  0  0  0  0  0  0  0
   12.7106   -6.0702    2.1171 C   0  0  2  0  0  0  0  0  0  0  0  0
   12.7580   -7.5939    2.0347 C   0  0  0  0  0  0  0  0  0  0  0  0
   12.3194   -8.3766    3.1039 C   0  0  0  0  0  0  0  0  0  0  0  0
   12.3978   -9.7673    3.0196 C   0  0  0  0  0  0  0  0  0  0  0  0
   12.9042  -10.3679    1.8692 C   0  0  0  0  0  0  0  0  0  0  0  0
   13.3260   -9.5937    0.7962 C   0  0  0  0  0  0  0  0  0  0  0  0
   13.2507   -8.2088    0.8795 C   0  0  0  0  0  0  0  0  0  0  0  0
   11.7473   -5.5319    1.1616 N   0  0  0  0  0  0  0  0  0  0  0  0
   11.7944   -4.1869    0.7523 C   0  0  0  0  0  0  0  0  0  0  0  0
   10.7727   -3.7107   -0.0610 C   0  0  0  0  0  0  0  0  0  0  0  0
   10.8032   -2.4026   -0.5353 C   0  0  0  0  0  0  0  0  0  0  0  0
   11.8552   -1.5670   -0.1635 C   0  0  0  0  0  0  0  0  0  0  0  0
   11.9379    0.0314   -0.7672 Cl  0  0  0  0  0  0  0  0  0  0  0  0
   12.8564   -2.0281    0.6785 C   0  0  0  0  0  0  0  0  0  0  0  0
   12.8661   -3.3474    1.1339 C   0  0  0  0  0  0  0  0  0  0  0  0
   14.0119   -3.8725    1.9814 C   0  0  1  0  0  0  0  0  0  0  0  0
   13.8062   -3.4544    3.3298 O   0  0  0  0  0  0  0  0  0  0  0  0
   14.6739   -3.4294    5.2082 H   0  0  0  0  0  0  0  0  0  0  0  0
   15.8121   -3.3293    3.8222 H   0  0  0  0  0  0  0  0  0  0  0  0
   15.9875   -5.5560    4.8189 H   0  0  0  0  0  0  0  0  0  0  0  0
   14.2076   -5.7814    4.7309 H   0  0  0  0  0  0  0  0  0  0  0  0
   16.1972   -5.6021    2.4165 H   0  0  0  0  0  0  0  0  0  0  0  0
   15.1792   -7.0041    2.8907 H   0  0  0  0  0  0  0  0  0  0  0  0
   14.4118   -5.6597    0.8542 H   0  0  0  0  0  0  0  0  0  0  0  0
   12.3869   -5.7988    3.1328 H   0  0  0  0  0  0  0  0  0  0  0  0
   11.9214   -7.9083    3.9920 H   0  0  0  0  0  0  0  0  0  0  0  0
   12.0659  -10.3780    3.8462 H   0  0  0  0  0  0  0  0  0  0  0  0
   12.9693  -11.4444    1.8113 H   0  0  0  0  0  0  0  0  0  0  0  0
   13.7098  -10.0647   -0.0967 H   0  0  0  0  0  0  0  0  0  0  0  0
   13.5750   -7.6030    0.0462 H   0  0  0  0  0  0  0  0  0  0  0  0
   11.8343   -6.0830    0.3317 H   0  0  0  0  0  0  0  0  0  0  0  0
    9.9508   -4.3592   -0.3263 H   0  0  0  0  0  0  0  0  0  0  0  0
   10.0203   -2.0389   -1.1843 H   0  0  0  0  0  0  0  0  0  0  0  0
   13.6422   -1.3545    0.9871 H   0  0  0  0  0  0  0  0  0  0  0  0
   14.9519   -3.4473    1.5997 H   0  0  0  0  0  0  0  0  0  0  0  0
  1  2  1  0  0  0  0
  1 21  1  0  0  0  0
  2  3  1  0  0  0  0
  3  4  1  0  0  0  0
  4  5  1  0  0  0  0
  4 20  1  0  0  0  0
  5  6  1  0  0  0  0
  5 12  1  0  0  0  0
  6  7  2  0  0  0  0
  6 11  1  0  0  0  0
  7  8  1  0  0  0  0
  8  9  2  0  0  0  0
  9 10  1  0  0  0  0
 10 11  2  0  0  0  0
 12 13  1  0  0  0  0
 13 14  2  0  0  0  0
 13 19  1  0  0  0  0
 14 15  1  0  0  0  0
 15 16  2  0  0  0  0
 16 17  1  0  0  0  0
 16 18  1  0  0  0  0
 18 19  2  0  0  0  0
 19 20  1  0  0  0  0
 20 21  1  0  0  0  0
  1 22  1  0  0  0  0
  1 23  1  0  0  0  0
  2 24  1  0  0  0  0
  2 25  1  0  0  0  0
  3 26  1  0  0  0  0
  3 27  1  0  0  0  0
  4 28  1  0  0  0  0
  5 29  1  0  0  0  0
  7 30  1  0  0  0  0
  8 31  1  0  0  0  0
  9 32  1  0  0  0  0
 10 33  1  0  0  0  0
 11 34  1  0  0  0  0
 12 35  1  0  0  0  0
 14 36  1  0  0  0  0
 15 37  1  0  0  0  0
 18 38  1  0  0  0  0
 20 39  1  0  0  0  0
M  END
> <ID>
CHEMBL1089393

> <IC50[nM]>
720

$$$$
CHEMBL1089393
  -OEChem-05192314313D
 Structure written by MMmdl.
 39 42  0     1  0  0  0  0  0999 V2000
   14.8893   -3.7981    4.1945 C   0  0  0  0  0  0  0  0  0  0  0  0
   15.0804   -5.3249    4.2412 C   0  0  0  0  0  0  0  0  0  0  0  0
   15.2239   -5.9068    2.8287 C   0  0  0  0  0  0  0  0  0  0  0  0
   14.1049   -5.4146    1.8817 C   0  0  1  0  0  0  0  0  0  0  0  0
   12.7106   -6.0702    2.1171 C   0  0  2  0  0  0  0  0  0  0  0  0
   12.7580   -7.5939    2.0347 C   0  0  0  0  0  0  0  0  0  0  0  0
   12.3194   -8.3766    3.1039 C   0  0  0  0  0  0  0  0  0  0  0  0
   12.3978   -9.7673    3.0196 C   0  0  0  0  0  0  0  0  0  0  0  0
   12.9042  -10.3679    1.8692 C   0  0  0  0  0  0  0  0  0  0  0  0
   13.3260   -9.5937    0.7962 C   0  0  0  0  0  0  0  0  0  0  0  0
   13.2507   -8.2088    0.8795 C   0  0  0  0  0  0  0  0  0  0  0  0
   11.7473   -5.5319    1.1616 N   0  0  0  0  0  0  0  0  0  0  0  0
   11.7944   -4.1869    0.7523 C   0  0  0  0  0  0  0  0  0  0  0  0
   10.7727   -3.7107   -0.0610 C   0  0  0  0  0  0  0  0  0  0  0  0
   10.8032   -2.4026   -0.5353 C   0  0  0  0  0  0  0  0  0  0  0  0
   11.8552   -1.5670   -0.1635 C   0  0  0  0  0  0  0  0  0  0  0  0
   11.9379    0.0314   -0.7672 Cl  0  0  0  0  0  0  0  0  0  0  0  0
   12.8564   -2.0281    0.6785 C   0  0  0  0  0  0  0  0  0  0  0  0
   12.8661   -3.3474    1.1339 C   0  0  0  0  0  0  0  0  0  0  0  0
   14.0119   -3.8725    1.9814 C   0  0  1  0  0  0  0  0  0  0  0  0
   13.8062   -3.4544    3.3298 O   0  0  0  0  0  0  0  0  0  0  0  0
   14.6739   -3.4294    5.2082 H   0  0  0  0  0  0  0  0  0  0  0  0
   15.8121   -3.3293    3.8222 H   0  0  0  0  0  0  0  0  0  0  0  0
   15.9875   -5.5560    4.8189 H   0  0  0  0  0  0  0  0  0  0  0  0
   14.2076   -5.7814    4.7309 H   0  0  0  0  0  0  0  0  0  0  0  0
   16.1972   -5.6021    2.4165 H   0  0  0  0  0  0  0  0  0  0  0  0
   15.1792   -7.0041    2.8907 H   0  0  0  0  0  0  0  0  0  0  0  0
   14.4118   -5.6597    0.8542 H   0  0  0  0  0  0  0  0  0  0  0  0
   12.3869   -5.7988    3.1328 H   0  0  0  0  0  0  0  0  0  0  0  0
   11.9214   -7.9083    3.9920 H   0  0  0  0  0  0  0  0  0  0  0  0
   12.0659  -10.3780    3.8462 H   0  0  0  0  0  0  0  0  0  0  0  0
   12.9693  -11.4444    1.8113 H   0  0  0  0  0  0  0  0  0  0  0  0
   13.7098  -10.0647   -0.0967 H   0  0  0  0  0  0  0  0  0  0  0  0
   13.5750   -7.6030    0.0462 H   0  0  0  0  0  0  0  0  0  0  0  0
    9.9508   -4.3592   -0.3263 H   0  0  0  0  0  0  0  0  0  0  0  0
   10.0203   -2.0389   -1.1843 H   0  0  0  0  0  0  0  0  0  0  0  0
   11.2780   -1.2152    0.7043 H   0  0  0  0  0  0  0  0  0  0  0  0
   13.6422   -1.3545    0.9871 H   0  0  0  0  0  0  0  0  0  0  0  0
   14.9519   -3.4473    1.5997 H   0  0  0  0  0  0  0  0  0  0  0  0
  1  2  1  0  0  0  0
  1 21  1  0  0  0  0
  2  3  1  0  0  0  0
  3  4  1  0  0  0  0
  4  5  1  0  0  0  0
  4 20  1  0  0  0  0
  5  6  1  0  0  0  0
  5 12  1  0  0  0  0
  6  7  2  0  0  0  0
  6 11  1  0  0  0  0
  7  8  1  0  0  0  0
  8  9  2  0  0  0  0
  9 10  1  0  0  0  0
 10 11  2  0  0  0  0
 12 13  2  0  0  0  0
 13 14  1  0  0  0  0
 13 19  1  0  0  0  0
 14 15  2  0  0  0  0
 15 16  1  0  0  0  0
 16 17  1  0  0  0  0
 16 18  1  0  0  0  0
 18 19  2  0  0  0  0
 19 20  1  0  0  0  0
 20 21  1  0  0  0  0
  1 22  1  0  0  0  0
  1 23  1  0  0  0  0
  2 24  1  0  0  0  0
  2 25  1  0  0  0  0
  3 26  1  0  0  0  0
  3 27  1  0  0  0  0
  4 28  1  0  0  0  0
  5 29  1  0  0  0  0
  7 30  1  0  0  0  0
  8 31  1  0  0  0  0
  9 32  1  0  0  0  0
 10 33  1  0  0  0  0
 11 34  1  0  0  0  0
 14 35  1  0  0  0  0
 15 36  1  0  0  0  0
 16 37  1  0  0  0  0
 18 38  1  0  0  0  0
 20 39  1  0  0  0  0
M  END
> <ID>
CHEMBL1089393

> <IC50[nM]>
720

$$$$
CHEMBL1089393
  -OEChem-05192314313D
 Structure written by MMmdl.
 39 42  0     1  0  0  0  0  0999 V2000
   14.8893   -3.7981    4.1945 C   0  0  0  0  0  0  0  0  0  0  0  0
   15.0804   -5.3249    4.2412 C   0  0  0  0  0  0  0  0  0  0  0  0
   15.2239   -5.9068    2.8287 C   0  0  0  0  0  0  0  0  0  0  0  0
   14.1049   -5.4146    1.8817 C   0  0  1  0  0  0  0  0  0  0  0  0
   12.7106   -6.0702    2.1171 C   0  0  2  0  0  0  0  0  0  0  0  0
   12.7580   -7.5939    2.0347 C   0  0  0  0  0  0  0  0  0  0  0  0
   12.3194   -8.3766    3.1039 C   0  0  0  0  0  0  0  0  0  0  0  0
   12.3978   -9.7673    3.0196 C   0  0  0  0  0  0  0  0  0  0  0  0
   12.9042  -10.3679    1.8692 C   0  0  0  0  0  0  0  0  0  0  0  0
   13.3260   -9.5937    0.7962 C   0  0  0  0  0  0  0  0  0  0  0  0
   13.2507   -8.2088    0.8795 C   0  0  0  0  0  0  0  0  0  0  0  0
   11.7473   -5.5319    1.1616 N   0  0  0  0  0  0  0  0  0  0  0  0
   11.7944   -4.1869    0.7523 C   0  0  0  0  0  0  0  0  0  0  0  0
   10.7727   -3.7107   -0.0610 C   0  0  0  0  0  0  0  0  0  0  0  0
   10.8032   -2.4026   -0.5353 C   0  0  0  0  0  0  0  0  0  0  0  0
   11.8552   -1.5670   -0.1635 C   0  0  0  0  0  0  0  0  0  0  0  0
   11.9379    0.0314   -0.7672 Cl  0  0  0  0  0  0  0  0  0  0  0  0
   12.8564   -2.0281    0.6785 C   0  0  0  0  0  0  0  0  0  0  0  0
   12.8661   -3.3474    1.1339 C   0  0  0  0  0  0  0  0  0  0  0  0
   14.0119   -3.8725    1.9814 C   0  0  1  0  0  0  0  0  0  0  0  0
   13.8062   -3.4544    3.3298 O   0  0  0  0  0  0  0  0  0  0  0  0
   14.6739   -3.4294    5.2082 H   0  0  0  0  0  0  0  0  0  0  0  0
   15.8121   -3.3293    3.8222 H   0  0  0  0  0  0  0  0  0  0  0  0
   15.9875   -5.5560    4.8189 H   0  0  0  0  0  0  0  0  0  0  0  0
   14.2076   -5.7814    4.7309 H   0  0  0  0  0  0  0  0  0  0  0  0
   16.1972   -5.6021    2.4165 H   0  0  0  0  0  0  0  0  0  0  0  0
   15.1792   -7.0041    2.8907 H   0  0  0  0  0  0  0  0  0  0  0  0
   14.4118   -5.6597    0.8542 H   0  0  0  0  0  0  0  0  0  0  0  0
   12.3869   -5.7988    3.1328 H   0  0  0  0  0  0  0  0  0  0  0  0
   11.9214   -7.9083    3.9920 H   0  0  0  0  0  0  0  0  0  0  0  0
   12.0659  -10.3780    3.8462 H   0  0  0  0  0  0  0  0  0  0  0  0
   12.9693  -11.4444    1.8113 H   0  0  0  0  0  0  0  0  0  0  0  0
   13.7098  -10.0647   -0.0967 H   0  0  0  0  0  0  0  0  0  0  0  0
   13.5750   -7.6030    0.0462 H   0  0  0  0  0  0  0  0  0  0  0  0
    9.9508   -4.3592   -0.3263 H   0  0  0  0  0  0  0  0  0  0  0  0
   10.0203   -2.0389   -1.1843 H   0  0  0  0  0  0  0  0  0  0  0  0
   13.6422   -1.3545    0.9871 H   0  0  0  0  0  0  0  0  0  0  0  0
   12.3208   -3.0481    2.0411 H   0  0  0  0  0  0  0  0  0  0  0  0
   14.9519   -3.4473    1.5997 H   0  0  0  0  0  0  0  0  0  0  0  0
  1  2  1  0  0  0  0
  1 21  1  0  0  0  0
  2  3  1  0  0  0  0
  3  4  1  0  0  0  0
  4  5  1  0  0  0  0
  4 20  1  0  0  0  0
  5  6  1  0  0  0  0
  5 12  1  0  0  0  0
  6  7  2  0  0  0  0
  6 11  1  0  0  0  0
  7  8  1  0  0  0  0
  8  9  2  0  0  0  0
  9 10  1  0  0  0  0
 10 11  2  0  0  0  0
 12 13  2  0  0  0  0
 13 14  1  0  0  0  0
 13 19  1  0  0  0  0
 14 15  2  0  0  0  0
 15 16  1  0  0  0  0
 16 17  1  0  0  0  0
 16 18  2  0  0  0  0
 18 19  1  0  0  0  0
 19 20  1  0  0  0  0
 20 21  1  0  0  0  0
  1 22  1  0  0  0  0
  1 23  1  0  0  0  0
  2 24  1  0  0  0  0
  2 25  1  0  0  0  0
  3 26  1  0  0  0  0
  3 27  1  0  0  0  0
  4 28  1  0  0  0  0
  5 29  1  0  0  0  0
  7 30  1  0  0  0  0
  8 31  1  0  0  0  0
  9 32  1  0  0  0  0
 10 33  1  0  0  0  0
 11 34  1  0  0  0  0
 14 35  1  0  0  0  0
 15 36  1  0  0  0  0
 18 37  1  0  0  0  0
 19 38  1  0  0  0  0
 20 39  1  0  0  0  0
M  END
> <ID>
CHEMBL1089393

> <IC50[nM]>
720

$$$$
CHEMBL1089393
  -OEChem-05192314313D
 Structure written by MMmdl.
 39 42  0     1  0  0  0  0  0999 V2000
   14.8893   -3.7981    4.1945 C   0  0  0  0  0  0  0  0  0  0  0  0
   15.0804   -5.3249    4.2412 C   0  0  0  0  0  0  0  0  0  0  0  0
   15.2239   -5.9068    2.8287 C   0  0  0  0  0  0  0  0  0  0  0  0
   14.1049   -5.4146    1.8817 C   0  0  1  0  0  0  0  0  0  0  0  0
   12.7106   -6.0702    2.1171 C   0  0  2  0  0  0  0  0  0  0  0  0
   12.7580   -7.5939    2.0347 C   0  0  0  0  0  0  0  0  0  0  0  0
   12.3194   -8.3766    3.1039 C   0  0  0  0  0  0  0  0  0  0  0  0
   12.3978   -9.7673    3.0196 C   0  0  0  0  0  0  0  0  0  0  0  0
   12.9042  -10.3679    1.8692 C   0  0  0  0  0  0  0  0  0  0  0  0
   13.3260   -9.5937    0.7962 C   0  0  0  0  0  0  0  0  0  0  0  0
   13.2507   -8.2088    0.8795 C   0  0  0  0  0  0  0  0  0  0  0  0
   11.7473   -5.5319    1.1616 N   0  0  0  0  0  0  0  0  0  0  0  0
   11.7944   -4.1869    0.7523 C   0  0  0  0  0  0  0  0  0  0  0  0
   10.7727   -3.7107   -0.0610 C   0  0  0  0  0  0  0  0  0  0  0  0
   10.8032   -2.4026   -0.5353 C   0  0  0  0  0  0  0  0  0  0  0  0
   11.8552   -1.5670   -0.1635 C   0  0  0  0  0  0  0  0  0  0  0  0
   11.9379    0.0314   -0.7672 Cl  0  0  0  0  0  0  0  0  0  0  0  0
   12.8564   -2.0281    0.6785 C   0  0  0  0  0  0  0  0  0  0  0  0
   12.8661   -3.3474    1.1339 C   0  0  0  0  0  0  0  0  0  0  0  0
   14.0119   -3.8725    1.9814 C   0  0  1  0  0  0  0  0  0  0  0  0
   13.8062   -3.4544    3.3298 O   0  0  0  0  0  0  0  0  0  0  0  0
   14.6739   -3.4294    5.2082 H   0  0  0  0  0  0  0  0  0  0  0  0
   15.8121   -3.3293    3.8222 H   0  0  0  0  0  0  0  0  0  0  0  0
   15.9875   -5.5560    4.8189 H   0  0  0  0  0  0  0  0  0  0  0  0
   14.2076   -5.7814    4.7309 H   0  0  0  0  0  0  0  0  0  0  0  0
   16.1972   -5.6021    2.4165 H   0  0  0  0  0  0  0  0  0  0  0  0
   15.1792   -7.0041    2.8907 H   0  0  0  0  0  0  0  0  0  0  0  0
   14.4118   -5.6597    0.8542 H   0  0  0  0  0  0  0  0  0  0  0  0
   12.3869   -5.7988    3.1328 H   0  0  0  0  0  0  0  0  0  0  0  0
   11.9214   -7.9083    3.9920 H   0  0  0  0  0  0  0  0  0  0  0  0
   12.0659  -10.3780    3.8462 H   0  0  0  0  0  0  0  0  0  0  0  0
   12.9693  -11.4444    1.8113 H   0  0  0  0  0  0  0  0  0  0  0  0
   13.7098  -10.0647   -0.0967 H   0  0  0  0  0  0  0  0  0  0  0  0
   13.5750   -7.6030    0.0462 H   0  0  0  0  0  0  0  0  0  0  0  0
   10.7403   -4.3661   -0.9438 H   0  0  0  0  0  0  0  0  0  0  0  0
    9.8386   -3.8180    0.5098 H   0  0  0  0  0  0  0  0  0  0  0  0
   10.0203   -2.0389   -1.1843 H   0  0  0  0  0  0  0  0  0  0  0  0
   13.6422   -1.3545    0.9871 H   0  0  0  0  0  0  0  0  0  0  0  0
   14.9519   -3.4473    1.5997 H   0  0  0  0  0  0  0  0  0  0  0  0
  1  2  1  0  0  0  0
  1 21  1  0  0  0  0
  2  3  1  0  0  0  0
  3  4  1  0  0  0  0
  4  5  1  0  0  0  0
  4 20  1  0  0  0  0
  5  6  1  0  0  0  0
  5 12  1  0  0  0  0
  6  7  2  0  0  0  0
  6 11  1  0  0  0  0
  7  8  1  0  0  0  0
  8  9  2  0  0  0  0
  9 10  1  0  0  0  0
 10 11  2  0  0  0  0
 12 13  2  0  0  0  0
 13 14  1  0  0  0  0
 13 19  1  0  0  0  0
 14 15  1  0  0  0  0
 15 16  2  0  0  0  0
 16 17  1  0  0  0  0
 16 18  1  0  0  0  0
 18 19  2  0  0  0  0
 19 20  1  0  0  0  0
 20 21  1  0  0  0  0
  1 22  1  0  0  0  0
  1 23  1  0  0  0  0
  2 24  1  0  0  0  0
  2 25  1  0  0  0  0
  3 26  1  0  0  0  0
  3 27  1  0  0  0  0
  4 28  1  0  0  0  0
  5 29  1  0  0  0  0
  7 30  1  0  0  0  0
  8 31  1  0  0  0  0
  9 32  1  0  0  0  0
 10 33  1  0  0  0  0
 11 34  1  0  0  0  0
 14 35  1  0  0  0  0
 14 36  1  0  0  0  0
 15 37  1  0  0  0  0
 18 38  1  0  0  0  0
 20 39  1  0  0  0  0
M  END
> <ID>
CHEMBL1089393

> <IC50[nM]>
720

$$$$
