CHEMBL1089056
  -OEChem-05192314313D
 Structure written by MMmdl.
 51 54  0     1  0  0  0  0  0999 V2000
   12.8440    0.7919    0.0923 C   0  0  0  0  0  0  0  0  0  0  0  0
   11.9510   -0.1740   -0.7292 C   0  0  0  0  0  0  0  0  0  0  0  0
   10.5043    0.3281   -0.7907 C   0  0  0  0  0  0  0  0  0  0  0  0
   12.4899   -0.2213   -2.1417 C   0  0  0  0  0  0  0  0  0  0  0  0
   11.8886   -1.5912   -0.1659 C   0  0  0  0  0  0  0  0  0  0  0  0
   10.8674   -2.4721   -0.5416 C   0  0  0  0  0  0  0  0  0  0  0  0
   10.7974   -3.7635   -0.0404 C   0  0  0  0  0  0  0  0  0  0  0  0
   11.8031   -4.2332    0.7903 C   0  0  0  0  0  0  0  0  0  0  0  0
   12.8759   -3.4004    1.1456 C   0  0  0  0  0  0  0  0  0  0  0  0
   12.8695   -2.0850    0.7008 C   0  0  0  0  0  0  0  0  0  0  0  0
   14.0244   -3.9056    1.9931 C   0  0  1  0  0  0  0  0  0  0  0  0
   13.7945   -3.4603    3.3342 O   0  0  0  0  0  0  0  0  0  0  0  0
   14.8679   -3.7921    4.2158 C   0  0  0  0  0  0  0  0  0  0  0  0
   15.0733   -5.3223    4.2605 C   0  0  0  0  0  0  0  0  0  0  0  0
   15.2307   -5.9110    2.8490 C   0  0  0  0  0  0  0  0  0  0  0  0
   14.1153   -5.4365    1.8937 C   0  0  1  0  0  0  0  0  0  0  0  0
   12.7183   -6.0874    2.1403 C   0  0  2  0  0  0  0  0  0  0  0  0
   12.7673   -7.6067    2.0472 C   0  0  0  0  0  0  0  0  0  0  0  0
   12.3297   -8.3923    3.1162 C   0  0  0  0  0  0  0  0  0  0  0  0
   12.4058   -9.7806    3.0303 C   0  0  0  0  0  0  0  0  0  0  0  0
   12.9252  -10.3773    1.8827 C   0  0  0  0  0  0  0  0  0  0  0  0
   13.3326   -9.5998    0.8058 C   0  0  0  0  0  0  0  0  0  0  0  0
   13.2534   -8.2136    0.8875 C   0  0  0  0  0  0  0  0  0  0  0  0
   11.7244   -5.5627    1.2182 N   0  0  0  0  0  0  0  0  0  0  0  0
   13.8740    0.4066    0.1190 H   0  0  0  0  0  0  0  0  0  0  0  0
   12.8368    1.7865   -0.3774 H   0  0  0  0  0  0  0  0  0  0  0  0
   12.4545    0.8680    1.1182 H   0  0  0  0  0  0  0  0  0  0  0  0
    9.8961   -0.3754   -1.3782 H   0  0  0  0  0  0  0  0  0  0  0  0
   10.0980    0.4010    0.2289 H   0  0  0  0  0  0  0  0  0  0  0  0
   10.4803    1.3195   -1.2667 H   0  0  0  0  0  0  0  0  0  0  0  0
   11.8729   -0.9013   -2.7475 H   0  0  0  0  0  0  0  0  0  0  0  0
   12.4609    0.7876   -2.5790 H   0  0  0  0  0  0  0  0  0  0  0  0
   13.5281   -0.5844   -2.1259 H   0  0  0  0  0  0  0  0  0  0  0  0
   10.1145   -2.1374   -1.2399 H   0  0  0  0  0  0  0  0  0  0  0  0
    9.9633   -4.4002   -0.2961 H   0  0  0  0  0  0  0  0  0  0  0  0
   13.6504   -1.4187    1.0362 H   0  0  0  0  0  0  0  0  0  0  0  0
   14.9620   -3.4752    1.6114 H   0  0  0  0  0  0  0  0  0  0  0  0
   15.7914   -3.3125    3.8593 H   0  0  0  0  0  0  0  0  0  0  0  0
   14.6325   -3.4281    5.2268 H   0  0  0  0  0  0  0  0  0  0  0  0
   15.9792   -5.5445    4.8435 H   0  0  0  0  0  0  0  0  0  0  0  0
   14.2019   -5.7859    4.7460 H   0  0  0  0  0  0  0  0  0  0  0  0
   16.2034   -5.5989    2.4411 H   0  0  0  0  0  0  0  0  0  0  0  0
   15.1965   -7.0084    2.9167 H   0  0  0  0  0  0  0  0  0  0  0  0
   14.4223   -5.6895    0.8682 H   0  0  0  0  0  0  0  0  0  0  0  0
   12.4150   -5.8265    3.1650 H   0  0  0  0  0  0  0  0  0  0  0  0
   11.9339   -7.9251    4.0059 H   0  0  0  0  0  0  0  0  0  0  0  0
   12.0631  -10.3932    3.8511 H   0  0  0  0  0  0  0  0  0  0  0  0
   13.0116  -11.4526    1.8302 H   0  0  0  0  0  0  0  0  0  0  0  0
   13.7091  -10.0697   -0.0908 H   0  0  0  0  0  0  0  0  0  0  0  0
   13.5685   -7.6055    0.0524 H   0  0  0  0  0  0  0  0  0  0  0  0
   10.8340   -5.6720    1.6600 H   0  0  0  0  0  0  0  0  0  0  0  0
  1  2  1  0  0  0  0
  2  3  1  0  0  0  0
  2  4  1  0  0  0  0
  2  5  1  0  0  0  0
  5  6  2  0  0  0  0
  5 10  1  0  0  0  0
  6  7  1  0  0  0  0
  7  8  2  0  0  0  0
  8  9  1  0  0  0  0
  8 24  1  0  0  0  0
  9 10  2  0  0  0  0
  9 11  1  0  0  0  0
 11 12  1  0  0  0  0
 11 16  1  0  0  0  0
 12 13  1  0  0  0  0
 13 14  1  0  0  0  0
 14 15  1  0  0  0  0
 15 16  1  0  0  0  0
 16 17  1  0  0  0  0
 17 18  1  0  0  0  0
 17 24  1  0  0  0  0
 18 19  2  0  0  0  0
 18 23  1  0  0  0  0
 19 20  1  0  0  0  0
 20 21  2  0  0  0  0
 21 22  1  0  0  0  0
 22 23  2  0  0  0  0
  1 25  1  0  0  0  0
  1 26  1  0  0  0  0
  1 27  1  0  0  0  0
  3 28  1  0  0  0  0
  3 29  1  0  0  0  0
  3 30  1  0  0  0  0
  4 31  1  0  0  0  0
  4 32  1  0  0  0  0
  4 33  1  0  0  0  0
  6 34  1  0  0  0  0
  7 35  1  0  0  0  0
 10 36  1  0  0  0  0
 11 37  1  0  0  0  0
 13 38  1  0  0  0  0
 13 39  1  0  0  0  0
 14 40  1  0  0  0  0
 14 41  1  0  0  0  0
 15 42  1  0  0  0  0
 15 43  1  0  0  0  0
 16 44  1  0  0  0  0
 17 45  1  0  0  0  0
 19 46  1  0  0  0  0
 20 47  1  0  0  0  0
 21 48  1  0  0  0  0
 22 49  1  0  0  0  0
 23 50  1  0  0  0  0
 24 51  1  0  0  0  0
M  END
> <ID>
CHEMBL1089056

> <IC50[nM]>
120

$$$$
CHEMBL1089056
  -OEChem-05192314313D
 Structure written by MMmdl.
 51 54  0     1  0  0  0  0  0999 V2000
   12.8440    0.7919    0.0923 C   0  0  0  0  0  0  0  0  0  0  0  0
   11.9510   -0.1740   -0.7292 C   0  0  0  0  0  0  0  0  0  0  0  0
   10.5043    0.3281   -0.7907 C   0  0  0  0  0  0  0  0  0  0  0  0
   12.4899   -0.2213   -2.1417 C   0  0  0  0  0  0  0  0  0  0  0  0
   11.8886   -1.5912   -0.1659 C   0  0  0  0  0  0  0  0  0  0  0  0
   10.8674   -2.4721   -0.5416 C   0  0  0  0  0  0  0  0  0  0  0  0
   10.7974   -3.7635   -0.0404 C   0  0  0  0  0  0  0  0  0  0  0  0
   11.8031   -4.2332    0.7903 C   0  0  0  0  0  0  0  0  0  0  0  0
   12.8759   -3.4004    1.1456 C   0  0  0  0  0  0  0  0  0  0  0  0
   12.8695   -2.0850    0.7008 C   0  0  0  0  0  0  0  0  0  0  0  0
   14.0244   -3.9056    1.9931 C   0  0  1  0  0  0  0  0  0  0  0  0
   13.7945   -3.4603    3.3342 O   0  0  0  0  0  0  0  0  0  0  0  0
   14.8679   -3.7921    4.2158 C   0  0  0  0  0  0  0  0  0  0  0  0
   15.0733   -5.3223    4.2605 C   0  0  0  0  0  0  0  0  0  0  0  0
   15.2307   -5.9110    2.8490 C   0  0  0  0  0  0  0  0  0  0  0  0
   14.1153   -5.4365    1.8937 C   0  0  1  0  0  0  0  0  0  0  0  0
   12.7183   -6.0874    2.1403 C   0  0  2  0  0  0  0  0  0  0  0  0
   12.7673   -7.6067    2.0472 C   0  0  0  0  0  0  0  0  0  0  0  0
   12.3297   -8.3923    3.1162 C   0  0  0  0  0  0  0  0  0  0  0  0
   12.4058   -9.7806    3.0303 C   0  0  0  0  0  0  0  0  0  0  0  0
   12.9252  -10.3773    1.8827 C   0  0  0  0  0  0  0  0  0  0  0  0
   13.3326   -9.5998    0.8058 C   0  0  0  0  0  0  0  0  0  0  0  0
   13.2534   -8.2136    0.8875 C   0  0  0  0  0  0  0  0  0  0  0  0
   11.7244   -5.5627    1.2182 N   0  0  0  0  0  0  0  0  0  0  0  0
   13.8740    0.4066    0.1190 H   0  0  0  0  0  0  0  0  0  0  0  0
   12.8368    1.7865   -0.3774 H   0  0  0  0  0  0  0  0  0  0  0  0
   12.4545    0.8680    1.1182 H   0  0  0  0  0  0  0  0  0  0  0  0
    9.8961   -0.3754   -1.3782 H   0  0  0  0  0  0  0  0  0  0  0  0
   10.0980    0.4010    0.2289 H   0  0  0  0  0  0  0  0  0  0  0  0
   10.4803    1.3195   -1.2667 H   0  0  0  0  0  0  0  0  0  0  0  0
   11.8729   -0.9013   -2.7475 H   0  0  0  0  0  0  0  0  0  0  0  0
   12.4609    0.7876   -2.5790 H   0  0  0  0  0  0  0  0  0  0  0  0
   13.5281   -0.5844   -2.1259 H   0  0  0  0  0  0  0  0  0  0  0  0
   11.2908   -1.2396    0.6879 H   0  0  0  0  0  0  0  0  0  0  0  0
   10.1145   -2.1374   -1.2399 H   0  0  0  0  0  0  0  0  0  0  0  0
    9.9633   -4.4002   -0.2961 H   0  0  0  0  0  0  0  0  0  0  0  0
   13.6504   -1.4187    1.0362 H   0  0  0  0  0  0  0  0  0  0  0  0
   14.9620   -3.4752    1.6114 H   0  0  0  0  0  0  0  0  0  0  0  0
   15.7914   -3.3125    3.8593 H   0  0  0  0  0  0  0  0  0  0  0  0
   14.6325   -3.4281    5.2268 H   0  0  0  0  0  0  0  0  0  0  0  0
   15.9792   -5.5445    4.8435 H   0  0  0  0  0  0  0  0  0  0  0  0
   14.2019   -5.7859    4.7460 H   0  0  0  0  0  0  0  0  0  0  0  0
   16.2034   -5.5989    2.4411 H   0  0  0  0  0  0  0  0  0  0  0  0
   15.1965   -7.0084    2.9167 H   0  0  0  0  0  0  0  0  0  0  0  0
   14.4223   -5.6895    0.8682 H   0  0  0  0  0  0  0  0  0  0  0  0
   12.4150   -5.8265    3.1650 H   0  0  0  0  0  0  0  0  0  0  0  0
   11.9339   -7.9251    4.0059 H   0  0  0  0  0  0  0  0  0  0  0  0
   12.0631  -10.3932    3.8511 H   0  0  0  0  0  0  0  0  0  0  0  0
   13.0116  -11.4526    1.8302 H   0  0  0  0  0  0  0  0  0  0  0  0
   13.7091  -10.0697   -0.0908 H   0  0  0  0  0  0  0  0  0  0  0  0
   13.5685   -7.6055    0.0524 H   0  0  0  0  0  0  0  0  0  0  0  0
  1  2  1  0  0  0  0
  2  3  1  0  0  0  0
  2  4  1  0  0  0  0
  2  5  1  0  0  0  0
  5  6  1  0  0  0  0
  5 10  1  0  0  0  0
  6  7  2  0  0  0  0
  7  8  1  0  0  0  0
  8  9  1  0  0  0  0
  8 24  2  0  0  0  0
  9 10  2  0  0  0  0
  9 11  1  0  0  0  0
 11 12  1  0  0  0  0
 11 16  1  0  0  0  0
 12 13  1  0  0  0  0
 13 14  1  0  0  0  0
 14 15  1  0  0  0  0
 15 16  1  0  0  0  0
 16 17  1  0  0  0  0
 17 18  1  0  0  0  0
 17 24  1  0  0  0  0
 18 19  2  0  0  0  0
 18 23  1  0  0  0  0
 19 20  1  0  0  0  0
 20 21  2  0  0  0  0
 21 22  1  0  0  0  0
 22 23  2  0  0  0  0
  1 25  1  0  0  0  0
  1 26  1  0  0  0  0
  1 27  1  0  0  0  0
  3 28  1  0  0  0  0
  3 29  1  0  0  0  0
  3 30  1  0  0  0  0
  4 31  1  0  0  0  0
  4 32  1  0  0  0  0
  4 33  1  0  0  0  0
  5 34  1  0  0  0  0
  6 35  1  0  0  0  0
  7 36  1  0  0  0  0
 10 37  1  0  0  0  0
 11 38  1  0  0  0  0
 13 39  1  0  0  0  0
 13 40  1  0  0  0  0
 14 41  1  0  0  0  0
 14 42  1  0  0  0  0
 15 43  1  0  0  0  0
 15 44  1  0  0  0  0
 16 45  1  0  0  0  0
 17 46  1  0  0  0  0
 19 47  1  0  0  0  0
 20 48  1  0  0  0  0
 21 49  1  0  0  0  0
 22 50  1  0  0  0  0
 23 51  1  0  0  0  0
M  END
> <ID>
CHEMBL1089056

> <IC50[nM]>
120

$$$$
CHEMBL1089056
  -OEChem-05192314313D
 Structure written by MMmdl.
 51 54  0     1  0  0  0  0  0999 V2000
   12.8440    0.7919    0.0923 C   0  0  0  0  0  0  0  0  0  0  0  0
   11.9510   -0.1740   -0.7292 C   0  0  0  0  0  0  0  0  0  0  0  0
   10.5043    0.3281   -0.7907 C   0  0  0  0  0  0  0  0  0  0  0  0
   12.4899   -0.2213   -2.1417 C   0  0  0  0  0  0  0  0  0  0  0  0
   11.8886   -1.5912   -0.1659 C   0  0  0  0  0  0  0  0  0  0  0  0
   10.8674   -2.4721   -0.5416 C   0  0  0  0  0  0  0  0  0  0  0  0
   10.7974   -3.7635   -0.0404 C   0  0  0  0  0  0  0  0  0  0  0  0
   11.8031   -4.2332    0.7903 C   0  0  0  0  0  0  0  0  0  0  0  0
   12.8759   -3.4004    1.1456 C   0  0  0  0  0  0  0  0  0  0  0  0
   12.8695   -2.0850    0.7008 C   0  0  0  0  0  0  0  0  0  0  0  0
   14.0244   -3.9056    1.9931 C   0  0  1  0  0  0  0  0  0  0  0  0
   13.7945   -3.4603    3.3342 O   0  0  0  0  0  0  0  0  0  0  0  0
   14.8679   -3.7921    4.2158 C   0  0  0  0  0  0  0  0  0  0  0  0
   15.0733   -5.3223    4.2605 C   0  0  0  0  0  0  0  0  0  0  0  0
   15.2307   -5.9110    2.8490 C   0  0  0  0  0  0  0  0  0  0  0  0
   14.1153   -5.4365    1.8937 C   0  0  1  0  0  0  0  0  0  0  0  0
   12.7183   -6.0874    2.1403 C   0  0  2  0  0  0  0  0  0  0  0  0
   12.7673   -7.6067    2.0472 C   0  0  0  0  0  0  0  0  0  0  0  0
   12.3297   -8.3923    3.1162 C   0  0  0  0  0  0  0  0  0  0  0  0
   12.4058   -9.7806    3.0303 C   0  0  0  0  0  0  0  0  0  0  0  0
   12.9252  -10.3773    1.8827 C   0  0  0  0  0  0  0  0  0  0  0  0
   13.3326   -9.5998    0.8058 C   0  0  0  0  0  0  0  0  0  0  0  0
   13.2534   -8.2136    0.8875 C   0  0  0  0  0  0  0  0  0  0  0  0
   11.7244   -5.5627    1.2182 N   0  0  0  0  0  0  0  0  0  0  0  0
   13.8740    0.4066    0.1190 H   0  0  0  0  0  0  0  0  0  0  0  0
   12.8368    1.7865   -0.3774 H   0  0  0  0  0  0  0  0  0  0  0  0
   12.4545    0.8680    1.1182 H   0  0  0  0  0  0  0  0  0  0  0  0
    9.8961   -0.3754   -1.3782 H   0  0  0  0  0  0  0  0  0  0  0  0
   10.0980    0.4010    0.2289 H   0  0  0  0  0  0  0  0  0  0  0  0
   10.4803    1.3195   -1.2667 H   0  0  0  0  0  0  0  0  0  0  0  0
   11.8729   -0.9013   -2.7475 H   0  0  0  0  0  0  0  0  0  0  0  0
   12.4609    0.7876   -2.5790 H   0  0  0  0  0  0  0  0  0  0  0  0
   13.5281   -0.5844   -2.1259 H   0  0  0  0  0  0  0  0  0  0  0  0
   10.1145   -2.1374   -1.2399 H   0  0  0  0  0  0  0  0  0  0  0  0
    9.9633   -4.4002   -0.2961 H   0  0  0  0  0  0  0  0  0  0  0  0
   12.3382   -3.0956    2.0555 H   0  0  0  0  0  0  0  0  0  0  0  0
   13.6504   -1.4187    1.0362 H   0  0  0  0  0  0  0  0  0  0  0  0
   14.9620   -3.4752    1.6114 H   0  0  0  0  0  0  0  0  0  0  0  0
   15.7914   -3.3125    3.8593 H   0  0  0  0  0  0  0  0  0  0  0  0
   14.6325   -3.4281    5.2268 H   0  0  0  0  0  0  0  0  0  0  0  0
   15.9792   -5.5445    4.8435 H   0  0  0  0  0  0  0  0  0  0  0  0
   14.2019   -5.7859    4.7460 H   0  0  0  0  0  0  0  0  0  0  0  0
   16.2034   -5.5989    2.4411 H   0  0  0  0  0  0  0  0  0  0  0  0
   15.1965   -7.0084    2.9167 H   0  0  0  0  0  0  0  0  0  0  0  0
   14.4223   -5.6895    0.8682 H   0  0  0  0  0  0  0  0  0  0  0  0
   12.4150   -5.8265    3.1650 H   0  0  0  0  0  0  0  0  0  0  0  0
   11.9339   -7.9251    4.0059 H   0  0  0  0  0  0  0  0  0  0  0  0
   12.0631  -10.3932    3.8511 H   0  0  0  0  0  0  0  0  0  0  0  0
   13.0116  -11.4526    1.8302 H   0  0  0  0  0  0  0  0  0  0  0  0
   13.7091  -10.0697   -0.0908 H   0  0  0  0  0  0  0  0  0  0  0  0
   13.5685   -7.6055    0.0524 H   0  0  0  0  0  0  0  0  0  0  0  0
  1  2  1  0  0  0  0
  2  3  1  0  0  0  0
  2  4  1  0  0  0  0
  2  5  1  0  0  0  0
  5  6  1  0  0  0  0
  5 10  2  0  0  0  0
  6  7  2  0  0  0  0
  7  8  1  0  0  0  0
  8  9  1  0  0  0  0
  8 24  2  0  0  0  0
  9 10  1  0  0  0  0
  9 11  1  0  0  0  0
 11 12  1  0  0  0  0
 11 16  1  0  0  0  0
 12 13  1  0  0  0  0
 13 14  1  0  0  0  0
 14 15  1  0  0  0  0
 15 16  1  0  0  0  0
 16 17  1  0  0  0  0
 17 18  1  0  0  0  0
 17 24  1  0  0  0  0
 18 19  2  0  0  0  0
 18 23  1  0  0  0  0
 19 20  1  0  0  0  0
 20 21  2  0  0  0  0
 21 22  1  0  0  0  0
 22 23  2  0  0  0  0
  1 25  1  0  0  0  0
  1 26  1  0  0  0  0
  1 27  1  0  0  0  0
  3 28  1  0  0  0  0
  3 29  1  0  0  0  0
  3 30  1  0  0  0  0
  4 31  1  0  0  0  0
  4 32  1  0  0  0  0
  4 33  1  0  0  0  0
  6 34  1  0  0  0  0
  7 35  1  0  0  0  0
  9 36  1  0  0  0  0
 10 37  1  0  0  0  0
 11 38  1  0  0  0  0
 13 39  1  0  0  0  0
 13 40  1  0  0  0  0
 14 41  1  0  0  0  0
 14 42  1  0  0  0  0
 15 43  1  0  0  0  0
 15 44  1  0  0  0  0
 16 45  1  0  0  0  0
 17 46  1  0  0  0  0
 19 47  1  0  0  0  0
 20 48  1  0  0  0  0
 21 49  1  0  0  0  0
 22 50  1  0  0  0  0
 23 51  1  0  0  0  0
M  END
> <ID>
CHEMBL1089056

> <IC50[nM]>
120

$$$$
CHEMBL1089056
  -OEChem-05192314313D
 Structure written by MMmdl.
 51 54  0     1  0  0  0  0  0999 V2000
   12.8440    0.7919    0.0923 C   0  0  0  0  0  0  0  0  0  0  0  0
   11.9510   -0.1740   -0.7292 C   0  0  0  0  0  0  0  0  0  0  0  0
   10.5043    0.3281   -0.7907 C   0  0  0  0  0  0  0  0  0  0  0  0
   12.4899   -0.2213   -2.1417 C   0  0  0  0  0  0  0  0  0  0  0  0
   11.8886   -1.5912   -0.1659 C   0  0  0  0  0  0  0  0  0  0  0  0
   10.8674   -2.4721   -0.5416 C   0  0  0  0  0  0  0  0  0  0  0  0
   10.7974   -3.7635   -0.0404 C   0  0  0  0  0  0  0  0  0  0  0  0
   11.8031   -4.2332    0.7903 C   0  0  0  0  0  0  0  0  0  0  0  0
   12.8759   -3.4004    1.1456 C   0  0  0  0  0  0  0  0  0  0  0  0
   12.8695   -2.0850    0.7008 C   0  0  0  0  0  0  0  0  0  0  0  0
   14.0244   -3.9056    1.9931 C   0  0  1  0  0  0  0  0  0  0  0  0
   13.7945   -3.4603    3.3342 O   0  0  0  0  0  0  0  0  0  0  0  0
   14.8679   -3.7921    4.2158 C   0  0  0  0  0  0  0  0  0  0  0  0
   15.0733   -5.3223    4.2605 C   0  0  0  0  0  0  0  0  0  0  0  0
   15.2307   -5.9110    2.8490 C   0  0  0  0  0  0  0  0  0  0  0  0
   14.1153   -5.4365    1.8937 C   0  0  1  0  0  0  0  0  0  0  0  0
   12.7183   -6.0874    2.1403 C   0  0  2  0  0  0  0  0  0  0  0  0
   12.7673   -7.6067    2.0472 C   0  0  0  0  0  0  0  0  0  0  0  0
   12.3297   -8.3923    3.1162 C   0  0  0  0  0  0  0  0  0  0  0  0
   12.4058   -9.7806    3.0303 C   0  0  0  0  0  0  0  0  0  0  0  0
   12.9252  -10.3773    1.8827 C   0  0  0  0  0  0  0  0  0  0  0  0
   13.3326   -9.5998    0.8058 C   0  0  0  0  0  0  0  0  0  0  0  0
   13.2534   -8.2136    0.8875 C   0  0  0  0  0  0  0  0  0  0  0  0
   11.7244   -5.5627    1.2182 N   0  0  0  0  0  0  0  0  0  0  0  0
   13.8740    0.4066    0.1190 H   0  0  0  0  0  0  0  0  0  0  0  0
   12.8368    1.7865   -0.3774 H   0  0  0  0  0  0  0  0  0  0  0  0
   12.4545    0.8680    1.1182 H   0  0  0  0  0  0  0  0  0  0  0  0
    9.8961   -0.3754   -1.3782 H   0  0  0  0  0  0  0  0  0  0  0  0
   10.0980    0.4010    0.2289 H   0  0  0  0  0  0  0  0  0  0  0  0
   10.4803    1.3195   -1.2667 H   0  0  0  0  0  0  0  0  0  0  0  0
   11.8729   -0.9013   -2.7475 H   0  0  0  0  0  0  0  0  0  0  0  0
   12.4609    0.7876   -2.5790 H   0  0  0  0  0  0  0  0  0  0  0  0
   13.5281   -0.5844   -2.1259 H   0  0  0  0  0  0  0  0  0  0  0  0
   10.1145   -2.1374   -1.2399 H   0  0  0  0  0  0  0  0  0  0  0  0
    9.8567   -3.8356    0.5252 H   0  0  0  0  0  0  0  0  0  0  0  0
   10.7571   -4.4402   -0.9067 H   0  0  0  0  0  0  0  0  0  0  0  0
   13.6504   -1.4187    1.0362 H   0  0  0  0  0  0  0  0  0  0  0  0
   14.9620   -3.4752    1.6114 H   0  0  0  0  0  0  0  0  0  0  0  0
   15.7914   -3.3125    3.8593 H   0  0  0  0  0  0  0  0  0  0  0  0
   14.6325   -3.4281    5.2268 H   0  0  0  0  0  0  0  0  0  0  0  0
   15.9792   -5.5445    4.8435 H   0  0  0  0  0  0  0  0  0  0  0  0
   14.2019   -5.7859    4.7460 H   0  0  0  0  0  0  0  0  0  0  0  0
   16.2034   -5.5989    2.4411 H   0  0  0  0  0  0  0  0  0  0  0  0
   15.1965   -7.0084    2.9167 H   0  0  0  0  0  0  0  0  0  0  0  0
   14.4223   -5.6895    0.8682 H   0  0  0  0  0  0  0  0  0  0  0  0
   12.4150   -5.8265    3.1650 H   0  0  0  0  0  0  0  0  0  0  0  0
   11.9339   -7.9251    4.0059 H   0  0  0  0  0  0  0  0  0  0  0  0
   12.0631  -10.3932    3.8511 H   0  0  0  0  0  0  0  0  0  0  0  0
   13.0116  -11.4526    1.8302 H   0  0  0  0  0  0  0  0  0  0  0  0
   13.7091  -10.0697   -0.0908 H   0  0  0  0  0  0  0  0  0  0  0  0
   13.5685   -7.6055    0.0524 H   0  0  0  0  0  0  0  0  0  0  0  0
  1  2  1  0  0  0  0
  2  3  1  0  0  0  0
  2  4  1  0  0  0  0
  2  5  1  0  0  0  0
  5  6  2  0  0  0  0
  5 10  1  0  0  0  0
  6  7  1  0  0  0  0
  7  8  1  0  0  0  0
  8  9  1  0  0  0  0
  8 24  2  0  0  0  0
  9 10  2  0  0  0  0
  9 11  1  0  0  0  0
 11 12  1  0  0  0  0
 11 16  1  0  0  0  0
 12 13  1  0  0  0  0
 13 14  1  0  0  0  0
 14 15  1  0  0  0  0
 15 16  1  0  0  0  0
 16 17  1  0  0  0  0
 17 18  1  0  0  0  0
 17 24  1  0  0  0  0
 18 19  2  0  0  0  0
 18 23  1  0  0  0  0
 19 20  1  0  0  0  0
 20 21  2  0  0  0  0
 21 22  1  0  0  0  0
 22 23  2  0  0  0  0
  1 25  1  0  0  0  0
  1 26  1  0  0  0  0
  1 27  1  0  0  0  0
  3 28  1  0  0  0  0
  3 29  1  0  0  0  0
  3 30  1  0  0  0  0
  4 31  1  0  0  0  0
  4 32  1  0  0  0  0
  4 33  1  0  0  0  0
  6 34  1  0  0  0  0
  7 35  1  0  0  0  0
  7 36  1  0  0  0  0
 10 37  1  0  0  0  0
 11 38  1  0  0  0  0
 13 39  1  0  0  0  0
 13 40  1  0  0  0  0
 14 41  1  0  0  0  0
 14 42  1  0  0  0  0
 15 43  1  0  0  0  0
 15 44  1  0  0  0  0
 16 45  1  0  0  0  0
 17 46  1  0  0  0  0
 19 47  1  0  0  0  0
 20 48  1  0  0  0  0
 21 49  1  0  0  0  0
 22 50  1  0  0  0  0
 23 51  1  0  0  0  0
M  END
> <ID>
CHEMBL1089056

> <IC50[nM]>
120

$$$$
