CHEMBL1093088
  -OEChem-05192314313D
 Structure written by MMmdl.
 51 55  0     1  0  0  0  0  0999 V2000
   10.6683    0.3259   -0.9315 F   0  0  0  0  0  0  0  0  0  0  0  0
   11.9092   -0.1373   -0.7426 C   0  0  0  0  0  0  0  0  0  0  0  0
   12.5572    0.6970    0.0708 F   0  0  0  0  0  0  0  0  0  0  0  0
   12.5317   -0.1562   -1.9180 F   0  0  0  0  0  0  0  0  0  0  0  0
   11.8546   -1.5518   -0.1871 C   0  0  0  0  0  0  0  0  0  0  0  0
   10.8042   -2.4028   -0.5323 C   0  0  0  0  0  0  0  0  0  0  0  0
   10.7730   -3.7099   -0.0542 C   0  0  0  0  0  0  0  0  0  0  0  0
   11.8144   -4.1935    0.7396 C   0  0  0  0  0  0  0  0  0  0  0  0
   12.8923   -3.3560    1.0946 C   0  0  0  0  0  0  0  0  0  0  0  0
   12.8665   -2.0258    0.6545 C   0  0  0  0  0  0  0  0  0  0  0  0
   14.0494   -3.8568    1.9562 C   0  0  1  0  0  0  0  0  0  0  0  0
   13.8553   -3.4173    3.2710 O   0  0  0  0  0  0  0  0  0  0  0  0
   14.8976   -3.7605    4.1929 C   0  0  1  0  0  0  0  0  0  0  0  0
   14.6578   -3.1005    5.5680 C   0  0  0  0  0  0  0  0  0  0  0  0
   13.2465   -2.9226    5.9121 N   0  0  0  0  0  0  0  0  0  0  0  0
   12.6204   -3.1518    7.1038 C   0  0  0  0  0  0  0  0  0  0  0  0
   11.3473   -2.8639    7.0012 N   0  0  0  0  0  0  0  0  0  0  0  0
   11.2559   -2.4452    5.7470 C   0  0  0  0  0  0  0  0  0  0  0  0
   12.3327   -2.4354    5.0401 N   0  0  0  0  0  0  0  0  0  0  0  0
   15.0684   -5.3101    4.2439 C   0  0  0  0  0  0  0  0  0  0  0  0
   15.2209   -5.9171    2.8316 C   0  0  0  0  0  0  0  0  0  0  0  0
   14.1192   -5.4200    1.8687 C   0  0  1  0  0  0  0  0  0  0  0  0
   12.7212   -6.0707    2.1169 C   0  0  2  0  0  0  0  0  0  0  0  0
   12.7592   -7.5954    2.0346 C   0  0  0  0  0  0  0  0  0  0  0  0
   12.3228   -8.3777    3.1055 C   0  0  0  0  0  0  0  0  0  0  0  0
   12.4048   -9.7653    3.0253 C   0  0  0  0  0  0  0  0  0  0  0  0
   12.9049  -10.3677    1.8739 C   0  0  0  0  0  0  0  0  0  0  0  0
   13.3264   -9.5938    0.7972 C   0  0  0  0  0  0  0  0  0  0  0  0
   13.2517   -8.2084    0.8785 C   0  0  0  0  0  0  0  0  0  0  0  0
   11.7331   -5.5251    1.1808 N   0  0  0  0  0  0  0  0  0  0  0  0
   10.0117   -2.0459   -1.1733 H   0  0  0  0  0  0  0  0  0  0  0  0
    9.9398   -4.3522   -0.2984 H   0  0  0  0  0  0  0  0  0  0  0  0
   13.6467   -1.3502    0.9728 H   0  0  0  0  0  0  0  0  0  0  0  0
   14.9883   -3.4502    1.5522 H   0  0  0  0  0  0  0  0  0  0  0  0
   15.8434   -3.3531    3.8063 H   0  0  0  0  0  0  0  0  0  0  0  0
   15.1236   -3.7317    6.3391 H   0  0  0  0  0  0  0  0  0  0  0  0
   15.1389   -2.1113    5.5641 H   0  0  0  0  0  0  0  0  0  0  0  0
   13.1036   -3.5164    7.9982 H   0  0  0  0  0  0  0  0  0  0  0  0
   10.3120   -2.1236    5.3323 H   0  0  0  0  0  0  0  0  0  0  0  0
   15.9655   -5.5502    4.8335 H   0  0  0  0  0  0  0  0  0  0  0  0
   14.1835   -5.7502    4.7270 H   0  0  0  0  0  0  0  0  0  0  0  0
   16.2028   -5.6319    2.4261 H   0  0  0  0  0  0  0  0  0  0  0  0
   15.1595   -7.0128    2.9069 H   0  0  0  0  0  0  0  0  0  0  0  0
   14.4278   -5.6794    0.8452 H   0  0  0  0  0  0  0  0  0  0  0  0
   12.4148   -5.8013    3.1384 H   0  0  0  0  0  0  0  0  0  0  0  0
   11.9233   -7.9085    3.9924 H   0  0  0  0  0  0  0  0  0  0  0  0
   12.0805  -10.3743    3.8561 H   0  0  0  0  0  0  0  0  0  0  0  0
   12.9661  -11.4444    1.8161 H   0  0  0  0  0  0  0  0  0  0  0  0
   13.7089  -10.0663   -0.0954 H   0  0  0  0  0  0  0  0  0  0  0  0
   13.5755   -7.6027    0.0450 H   0  0  0  0  0  0  0  0  0  0  0  0
   10.8399   -5.6256    1.6192 H   0  0  0  0  0  0  0  0  0  0  0  0
  1  2  1  0  0  0  0
  2  3  1  0  0  0  0
  2  4  1  0  0  0  0
  2  5  1  0  0  0  0
  5  6  2  0  0  0  0
  5 10  1  0  0  0  0
  6  7  1  0  0  0  0
  7  8  2  0  0  0  0
  8  9  1  0  0  0  0
  8 30  1  0  0  0  0
  9 10  2  0  0  0  0
  9 11  1  0  0  0  0
 11 12  1  0  0  0  0
 11 22  1  0  0  0  0
 12 13  1  0  0  0  0
 13 14  1  0  0  0  0
 13 20  1  0  0  0  0
 14 15  1  0  0  0  0
 15 16  1  0  0  0  0
 15 19  1  0  0  0  0
 16 17  2  0  0  0  0
 17 18  1  0  0  0  0
 18 19  2  0  0  0  0
 20 21  1  0  0  0  0
 21 22  1  0  0  0  0
 22 23  1  0  0  0  0
 23 24  1  0  0  0  0
 23 30  1  0  0  0  0
 24 25  2  0  0  0  0
 24 29  1  0  0  0  0
 25 26  1  0  0  0  0
 26 27  2  0  0  0  0
 27 28  1  0  0  0  0
 28 29  2  0  0  0  0
  6 31  1  0  0  0  0
  7 32  1  0  0  0  0
 10 33  1  0  0  0  0
 11 34  1  0  0  0  0
 13 35  1  0  0  0  0
 14 36  1  0  0  0  0
 14 37  1  0  0  0  0
 16 38  1  0  0  0  0
 18 39  1  0  0  0  0
 20 40  1  0  0  0  0
 20 41  1  0  0  0  0
 21 42  1  0  0  0  0
 21 43  1  0  0  0  0
 22 44  1  0  0  0  0
 23 45  1  0  0  0  0
 25 46  1  0  0  0  0
 26 47  1  0  0  0  0
 27 48  1  0  0  0  0
 28 49  1  0  0  0  0
 29 50  1  0  0  0  0
 30 51  1  0  0  0  0
M  END
> <ID>
CHEMBL1093088

> <IC50[nM]>
6

$$$$
CHEMBL1093088
  -OEChem-05192314313D
 Structure written by MMmdl.
 51 55  0     1  0  0  0  0  0999 V2000
   10.6683    0.3259   -0.9315 F   0  0  0  0  0  0  0  0  0  0  0  0
   11.9092   -0.1373   -0.7426 C   0  0  0  0  0  0  0  0  0  0  0  0
   12.5572    0.6970    0.0708 F   0  0  0  0  0  0  0  0  0  0  0  0
   12.5317   -0.1562   -1.9180 F   0  0  0  0  0  0  0  0  0  0  0  0
   11.8546   -1.5518   -0.1871 C   0  0  0  0  0  0  0  0  0  0  0  0
   10.8042   -2.4028   -0.5323 C   0  0  0  0  0  0  0  0  0  0  0  0
   10.7730   -3.7099   -0.0542 C   0  0  0  0  0  0  0  0  0  0  0  0
   11.8144   -4.1935    0.7396 C   0  0  0  0  0  0  0  0  0  0  0  0
   12.8923   -3.3560    1.0946 C   0  0  0  0  0  0  0  0  0  0  0  0
   12.8665   -2.0258    0.6545 C   0  0  0  0  0  0  0  0  0  0  0  0
   14.0494   -3.8568    1.9562 C   0  0  1  0  0  0  0  0  0  0  0  0
   13.8553   -3.4173    3.2710 O   0  0  0  0  0  0  0  0  0  0  0  0
   14.8976   -3.7605    4.1929 C   0  0  1  0  0  0  0  0  0  0  0  0
   14.6578   -3.1005    5.5680 C   0  0  0  0  0  0  0  0  0  0  0  0
   13.2465   -2.9226    5.9121 N   0  0  0  0  0  0  0  0  0  0  0  0
   12.6204   -3.1518    7.1038 C   0  0  0  0  0  0  0  0  0  0  0  0
   11.3473   -2.8639    7.0012 N   0  0  0  0  0  0  0  0  0  0  0  0
   11.2559   -2.4452    5.7470 C   0  0  0  0  0  0  0  0  0  0  0  0
   12.3327   -2.4354    5.0401 N   0  0  0  0  0  0  0  0  0  0  0  0
   15.0684   -5.3101    4.2439 C   0  0  0  0  0  0  0  0  0  0  0  0
   15.2209   -5.9171    2.8316 C   0  0  0  0  0  0  0  0  0  0  0  0
   14.1192   -5.4200    1.8687 C   0  0  1  0  0  0  0  0  0  0  0  0
   12.7212   -6.0707    2.1169 C   0  0  2  0  0  0  0  0  0  0  0  0
   12.7592   -7.5954    2.0346 C   0  0  0  0  0  0  0  0  0  0  0  0
   12.3228   -8.3777    3.1055 C   0  0  0  0  0  0  0  0  0  0  0  0
   12.4048   -9.7653    3.0253 C   0  0  0  0  0  0  0  0  0  0  0  0
   12.9049  -10.3677    1.8739 C   0  0  0  0  0  0  0  0  0  0  0  0
   13.3264   -9.5938    0.7972 C   0  0  0  0  0  0  0  0  0  0  0  0
   13.2517   -8.2084    0.8785 C   0  0  0  0  0  0  0  0  0  0  0  0
   11.7331   -5.5251    1.1808 N   0  0  0  0  0  0  0  0  0  0  0  0
   11.2874   -1.1942    0.6849 H   0  0  0  0  0  0  0  0  0  0  0  0
   10.0117   -2.0459   -1.1733 H   0  0  0  0  0  0  0  0  0  0  0  0
    9.9398   -4.3522   -0.2984 H   0  0  0  0  0  0  0  0  0  0  0  0
   13.6467   -1.3502    0.9728 H   0  0  0  0  0  0  0  0  0  0  0  0
   14.9883   -3.4502    1.5522 H   0  0  0  0  0  0  0  0  0  0  0  0
   15.8434   -3.3531    3.8063 H   0  0  0  0  0  0  0  0  0  0  0  0
   15.1236   -3.7317    6.3391 H   0  0  0  0  0  0  0  0  0  0  0  0
   15.1389   -2.1113    5.5641 H   0  0  0  0  0  0  0  0  0  0  0  0
   13.1036   -3.5164    7.9982 H   0  0  0  0  0  0  0  0  0  0  0  0
   10.3120   -2.1236    5.3323 H   0  0  0  0  0  0  0  0  0  0  0  0
   15.9655   -5.5502    4.8335 H   0  0  0  0  0  0  0  0  0  0  0  0
   14.1835   -5.7502    4.7270 H   0  0  0  0  0  0  0  0  0  0  0  0
   16.2028   -5.6319    2.4261 H   0  0  0  0  0  0  0  0  0  0  0  0
   15.1595   -7.0128    2.9069 H   0  0  0  0  0  0  0  0  0  0  0  0
   14.4278   -5.6794    0.8452 H   0  0  0  0  0  0  0  0  0  0  0  0
   12.4148   -5.8013    3.1384 H   0  0  0  0  0  0  0  0  0  0  0  0
   11.9233   -7.9085    3.9924 H   0  0  0  0  0  0  0  0  0  0  0  0
   12.0805  -10.3743    3.8561 H   0  0  0  0  0  0  0  0  0  0  0  0
   12.9661  -11.4444    1.8161 H   0  0  0  0  0  0  0  0  0  0  0  0
   13.7089  -10.0663   -0.0954 H   0  0  0  0  0  0  0  0  0  0  0  0
   13.5755   -7.6027    0.0450 H   0  0  0  0  0  0  0  0  0  0  0  0
  1  2  1  0  0  0  0
  2  3  1  0  0  0  0
  2  4  1  0  0  0  0
  2  5  1  0  0  0  0
  5  6  1  0  0  0  0
  5 10  1  0  0  0  0
  6  7  2  0  0  0  0
  7  8  1  0  0  0  0
  8  9  1  0  0  0  0
  8 30  2  0  0  0  0
  9 10  2  0  0  0  0
  9 11  1  0  0  0  0
 11 12  1  0  0  0  0
 11 22  1  0  0  0  0
 12 13  1  0  0  0  0
 13 14  1  0  0  0  0
 13 20  1  0  0  0  0
 14 15  1  0  0  0  0
 15 16  1  0  0  0  0
 15 19  1  0  0  0  0
 16 17  2  0  0  0  0
 17 18  1  0  0  0  0
 18 19  2  0  0  0  0
 20 21  1  0  0  0  0
 21 22  1  0  0  0  0
 22 23  1  0  0  0  0
 23 24  1  0  0  0  0
 23 30  1  0  0  0  0
 24 25  2  0  0  0  0
 24 29  1  0  0  0  0
 25 26  1  0  0  0  0
 26 27  2  0  0  0  0
 27 28  1  0  0  0  0
 28 29  2  0  0  0  0
  5 31  1  0  0  0  0
  6 32  1  0  0  0  0
  7 33  1  0  0  0  0
 10 34  1  0  0  0  0
 11 35  1  0  0  0  0
 13 36  1  0  0  0  0
 14 37  1  0  0  0  0
 14 38  1  0  0  0  0
 16 39  1  0  0  0  0
 18 40  1  0  0  0  0
 20 41  1  0  0  0  0
 20 42  1  0  0  0  0
 21 43  1  0  0  0  0
 21 44  1  0  0  0  0
 22 45  1  0  0  0  0
 23 46  1  0  0  0  0
 25 47  1  0  0  0  0
 26 48  1  0  0  0  0
 27 49  1  0  0  0  0
 28 50  1  0  0  0  0
 29 51  1  0  0  0  0
M  END
> <ID>
CHEMBL1093088

> <IC50[nM]>
6

$$$$
CHEMBL1093088
  -OEChem-05192314313D
 Structure written by MMmdl.
 51 55  0     1  0  0  0  0  0999 V2000
   10.6683    0.3259   -0.9315 F   0  0  0  0  0  0  0  0  0  0  0  0
   11.9092   -0.1373   -0.7426 C   0  0  0  0  0  0  0  0  0  0  0  0
   12.5572    0.6970    0.0708 F   0  0  0  0  0  0  0  0  0  0  0  0
   12.5317   -0.1562   -1.9180 F   0  0  0  0  0  0  0  0  0  0  0  0
   11.8546   -1.5518   -0.1871 C   0  0  0  0  0  0  0  0  0  0  0  0
   10.8042   -2.4028   -0.5323 C   0  0  0  0  0  0  0  0  0  0  0  0
   10.7730   -3.7099   -0.0542 C   0  0  0  0  0  0  0  0  0  0  0  0
   11.8144   -4.1935    0.7396 C   0  0  0  0  0  0  0  0  0  0  0  0
   12.8923   -3.3560    1.0946 C   0  0  0  0  0  0  0  0  0  0  0  0
   12.8665   -2.0258    0.6545 C   0  0  0  0  0  0  0  0  0  0  0  0
   14.0494   -3.8568    1.9562 C   0  0  1  0  0  0  0  0  0  0  0  0
   13.8553   -3.4173    3.2710 O   0  0  0  0  0  0  0  0  0  0  0  0
   14.8976   -3.7605    4.1929 C   0  0  1  0  0  0  0  0  0  0  0  0
   14.6578   -3.1005    5.5680 C   0  0  0  0  0  0  0  0  0  0  0  0
   13.2465   -2.9226    5.9121 N   0  0  0  0  0  0  0  0  0  0  0  0
   12.6204   -3.1518    7.1038 C   0  0  0  0  0  0  0  0  0  0  0  0
   11.3473   -2.8639    7.0012 N   0  0  0  0  0  0  0  0  0  0  0  0
   11.2559   -2.4452    5.7470 C   0  0  0  0  0  0  0  0  0  0  0  0
   12.3327   -2.4354    5.0401 N   0  0  0  0  0  0  0  0  0  0  0  0
   15.0684   -5.3101    4.2439 C   0  0  0  0  0  0  0  0  0  0  0  0
   15.2209   -5.9171    2.8316 C   0  0  0  0  0  0  0  0  0  0  0  0
   14.1192   -5.4200    1.8687 C   0  0  1  0  0  0  0  0  0  0  0  0
   12.7212   -6.0707    2.1169 C   0  0  2  0  0  0  0  0  0  0  0  0
   12.7592   -7.5954    2.0346 C   0  0  0  0  0  0  0  0  0  0  0  0
   12.3228   -8.3777    3.1055 C   0  0  0  0  0  0  0  0  0  0  0  0
   12.4048   -9.7653    3.0253 C   0  0  0  0  0  0  0  0  0  0  0  0
   12.9049  -10.3677    1.8739 C   0  0  0  0  0  0  0  0  0  0  0  0
   13.3264   -9.5938    0.7972 C   0  0  0  0  0  0  0  0  0  0  0  0
   13.2517   -8.2084    0.8785 C   0  0  0  0  0  0  0  0  0  0  0  0
   11.7331   -5.5251    1.1808 N   0  0  0  0  0  0  0  0  0  0  0  0
   10.0117   -2.0459   -1.1733 H   0  0  0  0  0  0  0  0  0  0  0  0
    9.9398   -4.3522   -0.2984 H   0  0  0  0  0  0  0  0  0  0  0  0
   13.4328   -3.6541    0.1841 H   0  0  0  0  0  0  0  0  0  0  0  0
   13.6467   -1.3502    0.9728 H   0  0  0  0  0  0  0  0  0  0  0  0
   14.9883   -3.4502    1.5522 H   0  0  0  0  0  0  0  0  0  0  0  0
   15.8434   -3.3531    3.8063 H   0  0  0  0  0  0  0  0  0  0  0  0
   15.1236   -3.7317    6.3391 H   0  0  0  0  0  0  0  0  0  0  0  0
   15.1389   -2.1113    5.5641 H   0  0  0  0  0  0  0  0  0  0  0  0
   13.1036   -3.5164    7.9982 H   0  0  0  0  0  0  0  0  0  0  0  0
   10.3120   -2.1236    5.3323 H   0  0  0  0  0  0  0  0  0  0  0  0
   15.9655   -5.5502    4.8335 H   0  0  0  0  0  0  0  0  0  0  0  0
   14.1835   -5.7502    4.7270 H   0  0  0  0  0  0  0  0  0  0  0  0
   16.2028   -5.6319    2.4261 H   0  0  0  0  0  0  0  0  0  0  0  0
   15.1595   -7.0128    2.9069 H   0  0  0  0  0  0  0  0  0  0  0  0
   14.4278   -5.6794    0.8452 H   0  0  0  0  0  0  0  0  0  0  0  0
   12.4148   -5.8013    3.1384 H   0  0  0  0  0  0  0  0  0  0  0  0
   11.9233   -7.9085    3.9924 H   0  0  0  0  0  0  0  0  0  0  0  0
   12.0805  -10.3743    3.8561 H   0  0  0  0  0  0  0  0  0  0  0  0
   12.9661  -11.4444    1.8161 H   0  0  0  0  0  0  0  0  0  0  0  0
   13.7089  -10.0663   -0.0954 H   0  0  0  0  0  0  0  0  0  0  0  0
   13.5755   -7.6027    0.0450 H   0  0  0  0  0  0  0  0  0  0  0  0
  1  2  1  0  0  0  0
  2  3  1  0  0  0  0
  2  4  1  0  0  0  0
  2  5  1  0  0  0  0
  5  6  1  0  0  0  0
  5 10  2  0  0  0  0
  6  7  2  0  0  0  0
  7  8  1  0  0  0  0
  8  9  1  0  0  0  0
  8 30  2  0  0  0  0
  9 10  1  0  0  0  0
  9 11  1  0  0  0  0
 11 12  1  0  0  0  0
 11 22  1  0  0  0  0
 12 13  1  0  0  0  0
 13 14  1  0  0  0  0
 13 20  1  0  0  0  0
 14 15  1  0  0  0  0
 15 16  1  0  0  0  0
 15 19  1  0  0  0  0
 16 17  2  0  0  0  0
 17 18  1  0  0  0  0
 18 19  2  0  0  0  0
 20 21  1  0  0  0  0
 21 22  1  0  0  0  0
 22 23  1  0  0  0  0
 23 24  1  0  0  0  0
 23 30  1  0  0  0  0
 24 25  2  0  0  0  0
 24 29  1  0  0  0  0
 25 26  1  0  0  0  0
 26 27  2  0  0  0  0
 27 28  1  0  0  0  0
 28 29  2  0  0  0  0
  6 31  1  0  0  0  0
  7 32  1  0  0  0  0
  9 33  1  0  0  0  0
 10 34  1  0  0  0  0
 11 35  1  0  0  0  0
 13 36  1  0  0  0  0
 14 37  1  0  0  0  0
 14 38  1  0  0  0  0
 16 39  1  0  0  0  0
 18 40  1  0  0  0  0
 20 41  1  0  0  0  0
 20 42  1  0  0  0  0
 21 43  1  0  0  0  0
 21 44  1  0  0  0  0
 22 45  1  0  0  0  0
 23 46  1  0  0  0  0
 25 47  1  0  0  0  0
 26 48  1  0  0  0  0
 27 49  1  0  0  0  0
 28 50  1  0  0  0  0
 29 51  1  0  0  0  0
M  END
> <ID>
CHEMBL1093088

> <IC50[nM]>
6

$$$$
CHEMBL1093088
  -OEChem-05192314313D
 Structure written by MMmdl.
 51 55  0     1  0  0  0  0  0999 V2000
   10.6683    0.3259   -0.9315 F   0  0  0  0  0  0  0  0  0  0  0  0
   11.9092   -0.1373   -0.7426 C   0  0  0  0  0  0  0  0  0  0  0  0
   12.5572    0.6970    0.0708 F   0  0  0  0  0  0  0  0  0  0  0  0
   12.5317   -0.1562   -1.9180 F   0  0  0  0  0  0  0  0  0  0  0  0
   11.8546   -1.5518   -0.1871 C   0  0  0  0  0  0  0  0  0  0  0  0
   10.8042   -2.4028   -0.5323 C   0  0  0  0  0  0  0  0  0  0  0  0
   10.7730   -3.7099   -0.0542 C   0  0  0  0  0  0  0  0  0  0  0  0
   11.8144   -4.1935    0.7396 C   0  0  0  0  0  0  0  0  0  0  0  0
   12.8923   -3.3560    1.0946 C   0  0  0  0  0  0  0  0  0  0  0  0
   12.8665   -2.0258    0.6545 C   0  0  0  0  0  0  0  0  0  0  0  0
   14.0494   -3.8568    1.9562 C   0  0  1  0  0  0  0  0  0  0  0  0
   13.8553   -3.4173    3.2710 O   0  0  0  0  0  0  0  0  0  0  0  0
   14.8976   -3.7605    4.1929 C   0  0  1  0  0  0  0  0  0  0  0  0
   14.6578   -3.1005    5.5680 C   0  0  0  0  0  0  0  0  0  0  0  0
   13.2465   -2.9226    5.9121 N   0  0  0  0  0  0  0  0  0  0  0  0
   12.6204   -3.1518    7.1038 C   0  0  0  0  0  0  0  0  0  0  0  0
   11.3473   -2.8639    7.0012 N   0  0  0  0  0  0  0  0  0  0  0  0
   11.2559   -2.4452    5.7470 C   0  0  0  0  0  0  0  0  0  0  0  0
   12.3327   -2.4354    5.0401 N   0  0  0  0  0  0  0  0  0  0  0  0
   15.0684   -5.3101    4.2439 C   0  0  0  0  0  0  0  0  0  0  0  0
   15.2209   -5.9171    2.8316 C   0  0  0  0  0  0  0  0  0  0  0  0
   14.1192   -5.4200    1.8687 C   0  0  1  0  0  0  0  0  0  0  0  0
   12.7212   -6.0707    2.1169 C   0  0  2  0  0  0  0  0  0  0  0  0
   12.7592   -7.5954    2.0346 C   0  0  0  0  0  0  0  0  0  0  0  0
   12.3228   -8.3777    3.1055 C   0  0  0  0  0  0  0  0  0  0  0  0
   12.4048   -9.7653    3.0253 C   0  0  0  0  0  0  0  0  0  0  0  0
   12.9049  -10.3677    1.8739 C   0  0  0  0  0  0  0  0  0  0  0  0
   13.3264   -9.5938    0.7972 C   0  0  0  0  0  0  0  0  0  0  0  0
   13.2517   -8.2084    0.8785 C   0  0  0  0  0  0  0  0  0  0  0  0
   11.7331   -5.5251    1.1808 N   0  0  0  0  0  0  0  0  0  0  0  0
   10.0117   -2.0459   -1.1733 H   0  0  0  0  0  0  0  0  0  0  0  0
    9.8516   -3.8080    0.5386 H   0  0  0  0  0  0  0  0  0  0  0  0
   10.7145   -4.3673   -0.9342 H   0  0  0  0  0  0  0  0  0  0  0  0
   13.6467   -1.3502    0.9728 H   0  0  0  0  0  0  0  0  0  0  0  0
   14.9883   -3.4502    1.5522 H   0  0  0  0  0  0  0  0  0  0  0  0
   15.8434   -3.3531    3.8063 H   0  0  0  0  0  0  0  0  0  0  0  0
   15.1236   -3.7317    6.3391 H   0  0  0  0  0  0  0  0  0  0  0  0
   15.1389   -2.1113    5.5641 H   0  0  0  0  0  0  0  0  0  0  0  0
   13.1036   -3.5164    7.9982 H   0  0  0  0  0  0  0  0  0  0  0  0
   10.3120   -2.1236    5.3323 H   0  0  0  0  0  0  0  0  0  0  0  0
   15.9655   -5.5502    4.8335 H   0  0  0  0  0  0  0  0  0  0  0  0
   14.1835   -5.7502    4.7270 H   0  0  0  0  0  0  0  0  0  0  0  0
   16.2028   -5.6319    2.4261 H   0  0  0  0  0  0  0  0  0  0  0  0
   15.1595   -7.0128    2.9069 H   0  0  0  0  0  0  0  0  0  0  0  0
   14.4278   -5.6794    0.8452 H   0  0  0  0  0  0  0  0  0  0  0  0
   12.4148   -5.8013    3.1384 H   0  0  0  0  0  0  0  0  0  0  0  0
   11.9233   -7.9085    3.9924 H   0  0  0  0  0  0  0  0  0  0  0  0
   12.0805  -10.3743    3.8561 H   0  0  0  0  0  0  0  0  0  0  0  0
   12.9661  -11.4444    1.8161 H   0  0  0  0  0  0  0  0  0  0  0  0
   13.7089  -10.0663   -0.0954 H   0  0  0  0  0  0  0  0  0  0  0  0
   13.5755   -7.6027    0.0450 H   0  0  0  0  0  0  0  0  0  0  0  0
  1  2  1  0  0  0  0
  2  3  1  0  0  0  0
  2  4  1  0  0  0  0
  2  5  1  0  0  0  0
  5  6  2  0  0  0  0
  5 10  1  0  0  0  0
  6  7  1  0  0  0  0
  7  8  1  0  0  0  0
  8  9  1  0  0  0  0
  8 30  2  0  0  0  0
  9 10  2  0  0  0  0
  9 11  1  0  0  0  0
 11 12  1  0  0  0  0
 11 22  1  0  0  0  0
 12 13  1  0  0  0  0
 13 14  1  0  0  0  0
 13 20  1  0  0  0  0
 14 15  1  0  0  0  0
 15 16  1  0  0  0  0
 15 19  1  0  0  0  0
 16 17  2  0  0  0  0
 17 18  1  0  0  0  0
 18 19  2  0  0  0  0
 20 21  1  0  0  0  0
 21 22  1  0  0  0  0
 22 23  1  0  0  0  0
 23 24  1  0  0  0  0
 23 30  1  0  0  0  0
 24 25  2  0  0  0  0
 24 29  1  0  0  0  0
 25 26  1  0  0  0  0
 26 27  2  0  0  0  0
 27 28  1  0  0  0  0
 28 29  2  0  0  0  0
  6 31  1  0  0  0  0
  7 32  1  0  0  0  0
  7 33  1  0  0  0  0
 10 34  1  0  0  0  0
 11 35  1  0  0  0  0
 13 36  1  0  0  0  0
 14 37  1  0  0  0  0
 14 38  1  0  0  0  0
 16 39  1  0  0  0  0
 18 40  1  0  0  0  0
 20 41  1  0  0  0  0
 20 42  1  0  0  0  0
 21 43  1  0  0  0  0
 21 44  1  0  0  0  0
 22 45  1  0  0  0  0
 23 46  1  0  0  0  0
 25 47  1  0  0  0  0
 26 48  1  0  0  0  0
 27 49  1  0  0  0  0
 28 50  1  0  0  0  0
 29 51  1  0  0  0  0
M  END
> <ID>
CHEMBL1093088

> <IC50[nM]>
6

$$$$
