CHEMBL1084676
  -OEChem-05192314313D
 Structure written by MMmdl.
 64 67  0     1  0  0  0  0  0999 V2000
   16.7713   -6.3756   12.0443 C   0  0  0  0  0  0  0  0  0  0  0  0
   15.7514   -7.3133   11.3477 N   0  0  0  0  0  0  0  0  0  0  0  0
   14.9672   -8.1032   12.4119 C   0  0  0  0  0  0  0  0  0  0  0  0
   14.7574   -6.5424   10.4444 C   0  0  0  0  0  0  0  0  0  0  0  0
   15.5368   -5.7840    9.4103 C   0  0  0  0  0  0  0  0  0  0  0  0
   14.7381   -5.4520    8.2799 O   0  0  0  0  0  0  0  0  0  0  0  0
   15.2652   -4.5977    7.4117 C   0  0  0  0  0  0  0  0  0  0  0  0
   16.5030   -4.3780    7.3160 O   0  0  0  0  0  0  0  0  0  0  0  0
   14.3099   -3.9820    6.6658 N   0  0  0  0  0  0  0  0  0  0  0  0
   14.6677   -3.0872    5.5706 C   0  0  0  0  0  0  0  0  0  0  0  0
   14.8962   -3.7746    4.1958 C   0  0  1  0  0  0  0  0  0  0  0  0
   15.0805   -5.3187    4.2370 C   0  0  0  0  0  0  0  0  0  0  0  0
   15.2182   -5.9065    2.8281 C   0  0  0  0  0  0  0  0  0  0  0  0
   14.1002   -5.4125    1.8825 C   0  0  1  0  0  0  0  0  0  0  0  0
   12.7104   -6.0683    2.1249 C   0  0  2  0  0  0  0  0  0  0  0  0
   12.7572   -7.5912    2.0353 C   0  0  0  0  0  0  0  0  0  0  0  0
   12.3235   -8.3758    3.1056 C   0  0  0  0  0  0  0  0  0  0  0  0
   12.4000   -9.7638    3.0213 C   0  0  0  0  0  0  0  0  0  0  0  0
   12.9028  -10.3655    1.8703 C   0  0  0  0  0  0  0  0  0  0  0  0
   13.3226   -9.5904    0.7944 C   0  0  0  0  0  0  0  0  0  0  0  0
   13.2483   -8.2048    0.8778 C   0  0  0  0  0  0  0  0  0  0  0  0
   11.7296   -5.5214    1.1862 N   0  0  0  0  0  0  0  0  0  0  0  0
   11.7939   -4.1799    0.7662 C   0  0  0  0  0  0  0  0  0  0  0  0
   10.7709   -3.7099   -0.0572 C   0  0  0  0  0  0  0  0  0  0  0  0
   10.8098   -2.4057   -0.5391 C   0  0  0  0  0  0  0  0  0  0  0  0
   11.8576   -1.5528   -0.1908 C   0  0  0  0  0  0  0  0  0  0  0  0
   11.9120   -0.1390   -0.7465 C   0  0  0  0  0  0  0  0  0  0  0  0
   10.6726    0.3357   -0.9277 F   0  0  0  0  0  0  0  0  0  0  0  0
   12.5628    0.6909    0.0665 F   0  0  0  0  0  0  0  0  0  0  0  0
   12.5294   -0.1587   -1.9235 F   0  0  0  0  0  0  0  0  0  0  0  0
   12.8610   -2.0226    0.6675 C   0  0  0  0  0  0  0  0  0  0  0  0
   12.8607   -3.3461    1.1326 C   0  0  0  0  0  0  0  0  0  0  0  0
   14.0132   -3.8683    1.9789 C   0  0  1  0  0  0  0  0  0  0  0  0
   13.8046   -3.4607    3.3297 O   0  0  0  0  0  0  0  0  0  0  0  0
   17.3309   -5.8118   11.2834 H   0  0  0  0  0  0  0  0  0  0  0  0
   16.2353   -5.6737   12.7001 H   0  0  0  0  0  0  0  0  0  0  0  0
   17.4711   -6.9761   12.6440 H   0  0  0  0  0  0  0  0  0  0  0  0
   14.2440   -8.7680   11.9169 H   0  0  0  0  0  0  0  0  0  0  0  0
   15.6666   -8.7041   13.0117 H   0  0  0  0  0  0  0  0  0  0  0  0
   14.4308   -7.4017   13.0678 H   0  0  0  0  0  0  0  0  0  0  0  0
   14.0792   -7.2531    9.9494 H   0  0  0  0  0  0  0  0  0  0  0  0
   14.1707   -5.8400   11.0547 H   0  0  0  0  0  0  0  0  0  0  0  0
   15.9169   -4.8558    9.8618 H   0  0  0  0  0  0  0  0  0  0  0  0
   16.3829   -6.4034    9.0780 H   0  0  0  0  0  0  0  0  0  0  0  0
   13.3450   -4.1453    6.8715 H   0  0  0  0  0  0  0  0  0  0  0  0
   13.8564   -2.3538    5.4527 H   0  0  0  0  0  0  0  0  0  0  0  0
   15.5958   -2.5658    5.8478 H   0  0  0  0  0  0  0  0  0  0  0  0
   15.8173   -3.3499    3.7702 H   0  0  0  0  0  0  0  0  0  0  0  0
   15.9874   -5.5551    4.8130 H   0  0  0  0  0  0  0  0  0  0  0  0
   14.2060   -5.7699    4.7285 H   0  0  0  0  0  0  0  0  0  0  0  0
   16.1921   -5.6084    2.4126 H   0  0  0  0  0  0  0  0  0  0  0  0
   15.1681   -7.0034    2.8945 H   0  0  0  0  0  0  0  0  0  0  0  0
   14.4043   -5.6608    0.8550 H   0  0  0  0  0  0  0  0  0  0  0  0
   12.3983   -5.8043    3.1461 H   0  0  0  0  0  0  0  0  0  0  0  0
   11.9300   -7.9079    3.9959 H   0  0  0  0  0  0  0  0  0  0  0  0
   12.0693  -10.3739    3.8489 H   0  0  0  0  0  0  0  0  0  0  0  0
   12.9672  -11.4420    1.8127 H   0  0  0  0  0  0  0  0  0  0  0  0
   13.7036  -10.0617   -0.0995 H   0  0  0  0  0  0  0  0  0  0  0  0
   13.5715   -7.5986    0.0445 H   0  0  0  0  0  0  0  0  0  0  0  0
   11.7859   -6.0807    0.3591 H   0  0  0  0  0  0  0  0  0  0  0  0
    9.9486   -4.3586   -0.3206 H   0  0  0  0  0  0  0  0  0  0  0  0
   10.0228   -2.0505   -1.1879 H   0  0  0  0  0  0  0  0  0  0  0  0
   13.6497   -1.3528    0.9768 H   0  0  0  0  0  0  0  0  0  0  0  0
   14.9531   -3.4430    1.5973 H   0  0  0  0  0  0  0  0  0  0  0  0
  1  2  1  0  0  0  0
  2  3  1  0  0  0  0
  2  4  1  0  0  0  0
  4  5  1  0  0  0  0
  5  6  1  0  0  0  0
  6  7  1  0  0  0  0
  7  8  2  0  0  0  0
  7  9  1  0  0  0  0
  9 10  1  0  0  0  0
 10 11  1  0  0  0  0
 11 12  1  0  0  0  0
 11 34  1  0  0  0  0
 12 13  1  0  0  0  0
 13 14  1  0  0  0  0
 14 15  1  0  0  0  0
 14 33  1  0  0  0  0
 15 16  1  0  0  0  0
 15 22  1  0  0  0  0
 16 17  2  0  0  0  0
 16 21  1  0  0  0  0
 17 18  1  0  0  0  0
 18 19  2  0  0  0  0
 19 20  1  0  0  0  0
 20 21  2  0  0  0  0
 22 23  1  0  0  0  0
 23 24  2  0  0  0  0
 23 32  1  0  0  0  0
 24 25  1  0  0  0  0
 25 26  2  0  0  0  0
 26 27  1  0  0  0  0
 26 31  1  0  0  0  0
 27 28  1  0  0  0  0
 27 29  1  0  0  0  0
 27 30  1  0  0  0  0
 31 32  2  0  0  0  0
 32 33  1  0  0  0  0
 33 34  1  0  0  0  0
  1 35  1  0  0  0  0
  1 36  1  0  0  0  0
  1 37  1  0  0  0  0
  3 38  1  0  0  0  0
  3 39  1  0  0  0  0
  3 40  1  0  0  0  0
  4 41  1  0  0  0  0
  4 42  1  0  0  0  0
  5 43  1  0  0  0  0
  5 44  1  0  0  0  0
  9 45  1  0  0  0  0
 10 46  1  0  0  0  0
 10 47  1  0  0  0  0
 11 48  1  0  0  0  0
 12 49  1  0  0  0  0
 12 50  1  0  0  0  0
 13 51  1  0  0  0  0
 13 52  1  0  0  0  0
 14 53  1  0  0  0  0
 15 54  1  0  0  0  0
 17 55  1  0  0  0  0
 18 56  1  0  0  0  0
 19 57  1  0  0  0  0
 20 58  1  0  0  0  0
 21 59  1  0  0  0  0
 22 60  1  0  0  0  0
 24 61  1  0  0  0  0
 25 62  1  0  0  0  0
 31 63  1  0  0  0  0
 33 64  1  0  0  0  0
M  END
> <ID>
CHEMBL1084676

> <IC50[nM]>
14

$$$$
CHEMBL1084676
  -OEChem-05192314313D
 Structure written by MMmdl.
 64 67  0     1  0  0  0  0  0999 V2000
   16.7713   -6.3756   12.0443 C   0  0  0  0  0  0  0  0  0  0  0  0
   15.7514   -7.3133   11.3477 N   0  0  0  0  0  0  0  0  0  0  0  0
   14.9672   -8.1032   12.4119 C   0  0  0  0  0  0  0  0  0  0  0  0
   14.7574   -6.5424   10.4444 C   0  0  0  0  0  0  0  0  0  0  0  0
   15.5368   -5.7840    9.4103 C   0  0  0  0  0  0  0  0  0  0  0  0
   14.7381   -5.4520    8.2799 O   0  0  0  0  0  0  0  0  0  0  0  0
   15.2652   -4.5977    7.4117 C   0  0  0  0  0  0  0  0  0  0  0  0
   16.5030   -4.3780    7.3160 O   0  0  0  0  0  0  0  0  0  0  0  0
   14.3099   -3.9820    6.6658 N   0  0  0  0  0  0  0  0  0  0  0  0
   14.6677   -3.0872    5.5706 C   0  0  0  0  0  0  0  0  0  0  0  0
   14.8962   -3.7746    4.1958 C   0  0  1  0  0  0  0  0  0  0  0  0
   15.0805   -5.3187    4.2370 C   0  0  0  0  0  0  0  0  0  0  0  0
   15.2182   -5.9065    2.8281 C   0  0  0  0  0  0  0  0  0  0  0  0
   14.1002   -5.4125    1.8825 C   0  0  1  0  0  0  0  0  0  0  0  0
   12.7104   -6.0683    2.1249 C   0  0  2  0  0  0  0  0  0  0  0  0
   12.7572   -7.5912    2.0353 C   0  0  0  0  0  0  0  0  0  0  0  0
   12.3235   -8.3758    3.1056 C   0  0  0  0  0  0  0  0  0  0  0  0
   12.4000   -9.7638    3.0213 C   0  0  0  0  0  0  0  0  0  0  0  0
   12.9028  -10.3655    1.8703 C   0  0  0  0  0  0  0  0  0  0  0  0
   13.3226   -9.5904    0.7944 C   0  0  0  0  0  0  0  0  0  0  0  0
   13.2483   -8.2048    0.8778 C   0  0  0  0  0  0  0  0  0  0  0  0
   11.7296   -5.5214    1.1862 N   0  0  0  0  0  0  0  0  0  0  0  0
   11.7939   -4.1799    0.7662 C   0  0  0  0  0  0  0  0  0  0  0  0
   10.7709   -3.7099   -0.0572 C   0  0  0  0  0  0  0  0  0  0  0  0
   10.8098   -2.4057   -0.5391 C   0  0  0  0  0  0  0  0  0  0  0  0
   11.8576   -1.5528   -0.1908 C   0  0  0  0  0  0  0  0  0  0  0  0
   11.9120   -0.1390   -0.7465 C   0  0  0  0  0  0  0  0  0  0  0  0
   10.6726    0.3357   -0.9277 F   0  0  0  0  0  0  0  0  0  0  0  0
   12.5628    0.6909    0.0665 F   0  0  0  0  0  0  0  0  0  0  0  0
   12.5294   -0.1587   -1.9235 F   0  0  0  0  0  0  0  0  0  0  0  0
   12.8610   -2.0226    0.6675 C   0  0  0  0  0  0  0  0  0  0  0  0
   12.8607   -3.3461    1.1326 C   0  0  0  0  0  0  0  0  0  0  0  0
   14.0132   -3.8683    1.9789 C   0  0  1  0  0  0  0  0  0  0  0  0
   13.8046   -3.4607    3.3297 O   0  0  0  0  0  0  0  0  0  0  0  0
   17.3309   -5.8118   11.2834 H   0  0  0  0  0  0  0  0  0  0  0  0
   16.2353   -5.6737   12.7001 H   0  0  0  0  0  0  0  0  0  0  0  0
   17.4711   -6.9761   12.6440 H   0  0  0  0  0  0  0  0  0  0  0  0
   14.2440   -8.7680   11.9169 H   0  0  0  0  0  0  0  0  0  0  0  0
   15.6666   -8.7041   13.0117 H   0  0  0  0  0  0  0  0  0  0  0  0
   14.4308   -7.4017   13.0678 H   0  0  0  0  0  0  0  0  0  0  0  0
   14.0792   -7.2531    9.9494 H   0  0  0  0  0  0  0  0  0  0  0  0
   14.1707   -5.8400   11.0547 H   0  0  0  0  0  0  0  0  0  0  0  0
   15.9169   -4.8558    9.8618 H   0  0  0  0  0  0  0  0  0  0  0  0
   16.3829   -6.4034    9.0780 H   0  0  0  0  0  0  0  0  0  0  0  0
   16.6592   -3.7348    6.6345 H   0  0  0  0  0  0  0  0  0  0  0  0
   13.8564   -2.3538    5.4527 H   0  0  0  0  0  0  0  0  0  0  0  0
   15.5958   -2.5658    5.8478 H   0  0  0  0  0  0  0  0  0  0  0  0
   15.8173   -3.3499    3.7702 H   0  0  0  0  0  0  0  0  0  0  0  0
   15.9874   -5.5551    4.8130 H   0  0  0  0  0  0  0  0  0  0  0  0
   14.2060   -5.7699    4.7285 H   0  0  0  0  0  0  0  0  0  0  0  0
   16.1921   -5.6084    2.4126 H   0  0  0  0  0  0  0  0  0  0  0  0
   15.1681   -7.0034    2.8945 H   0  0  0  0  0  0  0  0  0  0  0  0
   14.4043   -5.6608    0.8550 H   0  0  0  0  0  0  0  0  0  0  0  0
   12.3983   -5.8043    3.1461 H   0  0  0  0  0  0  0  0  0  0  0  0
   11.9300   -7.9079    3.9959 H   0  0  0  0  0  0  0  0  0  0  0  0
   12.0693  -10.3739    3.8489 H   0  0  0  0  0  0  0  0  0  0  0  0
   12.9672  -11.4420    1.8127 H   0  0  0  0  0  0  0  0  0  0  0  0
   13.7036  -10.0617   -0.0995 H   0  0  0  0  0  0  0  0  0  0  0  0
   13.5715   -7.5986    0.0445 H   0  0  0  0  0  0  0  0  0  0  0  0
   11.7859   -6.0807    0.3591 H   0  0  0  0  0  0  0  0  0  0  0  0
    9.9486   -4.3586   -0.3206 H   0  0  0  0  0  0  0  0  0  0  0  0
   10.0228   -2.0505   -1.1879 H   0  0  0  0  0  0  0  0  0  0  0  0
   13.6497   -1.3528    0.9768 H   0  0  0  0  0  0  0  0  0  0  0  0
   14.9531   -3.4430    1.5973 H   0  0  0  0  0  0  0  0  0  0  0  0
  1  2  1  0  0  0  0
  2  3  1  0  0  0  0
  2  4  1  0  0  0  0
  4  5  1  0  0  0  0
  5  6  1  0  0  0  0
  6  7  1  0  0  0  0
  7  8  1  0  0  0  0
  7  9  2  0  0  0  0
  9 10  1  0  0  0  0
 10 11  1  0  0  0  0
 11 12  1  0  0  0  0
 11 34  1  0  0  0  0
 12 13  1  0  0  0  0
 13 14  1  0  0  0  0
 14 15  1  0  0  0  0
 14 33  1  0  0  0  0
 15 16  1  0  0  0  0
 15 22  1  0  0  0  0
 16 17  2  0  0  0  0
 16 21  1  0  0  0  0
 17 18  1  0  0  0  0
 18 19  2  0  0  0  0
 19 20  1  0  0  0  0
 20 21  2  0  0  0  0
 22 23  1  0  0  0  0
 23 24  2  0  0  0  0
 23 32  1  0  0  0  0
 24 25  1  0  0  0  0
 25 26  2  0  0  0  0
 26 27  1  0  0  0  0
 26 31  1  0  0  0  0
 27 28  1  0  0  0  0
 27 29  1  0  0  0  0
 27 30  1  0  0  0  0
 31 32  2  0  0  0  0
 32 33  1  0  0  0  0
 33 34  1  0  0  0  0
  1 35  1  0  0  0  0
  1 36  1  0  0  0  0
  1 37  1  0  0  0  0
  3 38  1  0  0  0  0
  3 39  1  0  0  0  0
  3 40  1  0  0  0  0
  4 41  1  0  0  0  0
  4 42  1  0  0  0  0
  5 43  1  0  0  0  0
  5 44  1  0  0  0  0
  8 45  1  0  0  0  0
 10 46  1  0  0  0  0
 10 47  1  0  0  0  0
 11 48  1  0  0  0  0
 12 49  1  0  0  0  0
 12 50  1  0  0  0  0
 13 51  1  0  0  0  0
 13 52  1  0  0  0  0
 14 53  1  0  0  0  0
 15 54  1  0  0  0  0
 17 55  1  0  0  0  0
 18 56  1  0  0  0  0
 19 57  1  0  0  0  0
 20 58  1  0  0  0  0
 21 59  1  0  0  0  0
 22 60  1  0  0  0  0
 24 61  1  0  0  0  0
 25 62  1  0  0  0  0
 31 63  1  0  0  0  0
 33 64  1  0  0  0  0
M  END
> <ID>
CHEMBL1084676

> <IC50[nM]>
14

$$$$
CHEMBL1084676
  -OEChem-05192314313D
 Structure written by MMmdl.
 64 67  0     1  0  0  0  0  0999 V2000
   16.7713   -6.3756   12.0443 C   0  0  0  0  0  0  0  0  0  0  0  0
   15.7514   -7.3133   11.3477 N   0  0  0  0  0  0  0  0  0  0  0  0
   14.9672   -8.1032   12.4119 C   0  0  0  0  0  0  0  0  0  0  0  0
   14.7574   -6.5424   10.4444 C   0  0  0  0  0  0  0  0  0  0  0  0
   15.5368   -5.7840    9.4103 C   0  0  0  0  0  0  0  0  0  0  0  0
   14.7381   -5.4520    8.2799 O   0  0  0  0  0  0  0  0  0  0  0  0
   15.2652   -4.5977    7.4117 C   0  0  0  0  0  0  0  0  0  0  0  0
   16.5030   -4.3780    7.3160 O   0  0  0  0  0  0  0  0  0  0  0  0
   14.3099   -3.9820    6.6658 N   0  0  0  0  0  0  0  0  0  0  0  0
   14.6677   -3.0872    5.5706 C   0  0  0  0  0  0  0  0  0  0  0  0
   14.8962   -3.7746    4.1958 C   0  0  1  0  0  0  0  0  0  0  0  0
   15.0805   -5.3187    4.2370 C   0  0  0  0  0  0  0  0  0  0  0  0
   15.2182   -5.9065    2.8281 C   0  0  0  0  0  0  0  0  0  0  0  0
   14.1002   -5.4125    1.8825 C   0  0  1  0  0  0  0  0  0  0  0  0
   12.7104   -6.0683    2.1249 C   0  0  2  0  0  0  0  0  0  0  0  0
   12.7572   -7.5912    2.0353 C   0  0  0  0  0  0  0  0  0  0  0  0
   12.3235   -8.3758    3.1056 C   0  0  0  0  0  0  0  0  0  0  0  0
   12.4000   -9.7638    3.0213 C   0  0  0  0  0  0  0  0  0  0  0  0
   12.9028  -10.3655    1.8703 C   0  0  0  0  0  0  0  0  0  0  0  0
   13.3226   -9.5904    0.7944 C   0  0  0  0  0  0  0  0  0  0  0  0
   13.2483   -8.2048    0.8778 C   0  0  0  0  0  0  0  0  0  0  0  0
   11.7296   -5.5214    1.1862 N   0  0  0  0  0  0  0  0  0  0  0  0
   11.7939   -4.1799    0.7662 C   0  0  0  0  0  0  0  0  0  0  0  0
   10.7709   -3.7099   -0.0572 C   0  0  0  0  0  0  0  0  0  0  0  0
   10.8098   -2.4057   -0.5391 C   0  0  0  0  0  0  0  0  0  0  0  0
   11.8576   -1.5528   -0.1908 C   0  0  0  0  0  0  0  0  0  0  0  0
   11.9120   -0.1390   -0.7465 C   0  0  0  0  0  0  0  0  0  0  0  0
   10.6726    0.3357   -0.9277 F   0  0  0  0  0  0  0  0  0  0  0  0
   12.5628    0.6909    0.0665 F   0  0  0  0  0  0  0  0  0  0  0  0
   12.5294   -0.1587   -1.9235 F   0  0  0  0  0  0  0  0  0  0  0  0
   12.8610   -2.0226    0.6675 C   0  0  0  0  0  0  0  0  0  0  0  0
   12.8607   -3.3461    1.1326 C   0  0  0  0  0  0  0  0  0  0  0  0
   14.0132   -3.8683    1.9789 C   0  0  1  0  0  0  0  0  0  0  0  0
   13.8046   -3.4607    3.3297 O   0  0  0  0  0  0  0  0  0  0  0  0
   17.3309   -5.8118   11.2834 H   0  0  0  0  0  0  0  0  0  0  0  0
   16.2353   -5.6737   12.7001 H   0  0  0  0  0  0  0  0  0  0  0  0
   17.4711   -6.9761   12.6440 H   0  0  0  0  0  0  0  0  0  0  0  0
   14.2440   -8.7680   11.9169 H   0  0  0  0  0  0  0  0  0  0  0  0
   15.6666   -8.7041   13.0117 H   0  0  0  0  0  0  0  0  0  0  0  0
   14.4308   -7.4017   13.0678 H   0  0  0  0  0  0  0  0  0  0  0  0
   14.0792   -7.2531    9.9494 H   0  0  0  0  0  0  0  0  0  0  0  0
   14.1707   -5.8400   11.0547 H   0  0  0  0  0  0  0  0  0  0  0  0
   15.9169   -4.8558    9.8618 H   0  0  0  0  0  0  0  0  0  0  0  0
   16.3829   -6.4034    9.0780 H   0  0  0  0  0  0  0  0  0  0  0  0
   13.3450   -4.1453    6.8715 H   0  0  0  0  0  0  0  0  0  0  0  0
   13.8564   -2.3538    5.4527 H   0  0  0  0  0  0  0  0  0  0  0  0
   15.5958   -2.5658    5.8478 H   0  0  0  0  0  0  0  0  0  0  0  0
   15.8173   -3.3499    3.7702 H   0  0  0  0  0  0  0  0  0  0  0  0
   15.9874   -5.5551    4.8130 H   0  0  0  0  0  0  0  0  0  0  0  0
   14.2060   -5.7699    4.7285 H   0  0  0  0  0  0  0  0  0  0  0  0
   16.1921   -5.6084    2.4126 H   0  0  0  0  0  0  0  0  0  0  0  0
   15.1681   -7.0034    2.8945 H   0  0  0  0  0  0  0  0  0  0  0  0
   14.4043   -5.6608    0.8550 H   0  0  0  0  0  0  0  0  0  0  0  0
   12.3983   -5.8043    3.1461 H   0  0  0  0  0  0  0  0  0  0  0  0
   11.9300   -7.9079    3.9959 H   0  0  0  0  0  0  0  0  0  0  0  0
   12.0693  -10.3739    3.8489 H   0  0  0  0  0  0  0  0  0  0  0  0
   12.9672  -11.4420    1.8127 H   0  0  0  0  0  0  0  0  0  0  0  0
   13.7036  -10.0617   -0.0995 H   0  0  0  0  0  0  0  0  0  0  0  0
   13.5715   -7.5986    0.0445 H   0  0  0  0  0  0  0  0  0  0  0  0
    9.9486   -4.3586   -0.3206 H   0  0  0  0  0  0  0  0  0  0  0  0
   10.0228   -2.0505   -1.1879 H   0  0  0  0  0  0  0  0  0  0  0  0
   11.2814   -1.1935    0.6746 H   0  0  0  0  0  0  0  0  0  0  0  0
   13.6497   -1.3528    0.9768 H   0  0  0  0  0  0  0  0  0  0  0  0
   14.9531   -3.4430    1.5973 H   0  0  0  0  0  0  0  0  0  0  0  0
  1  2  1  0  0  0  0
  2  3  1  0  0  0  0
  2  4  1  0  0  0  0
  4  5  1  0  0  0  0
  5  6  1  0  0  0  0
  6  7  1  0  0  0  0
  7  8  2  0  0  0  0
  7  9  1  0  0  0  0
  9 10  1  0  0  0  0
 10 11  1  0  0  0  0
 11 12  1  0  0  0  0
 11 34  1  0  0  0  0
 12 13  1  0  0  0  0
 13 14  1  0  0  0  0
 14 15  1  0  0  0  0
 14 33  1  0  0  0  0
 15 16  1  0  0  0  0
 15 22  1  0  0  0  0
 16 17  2  0  0  0  0
 16 21  1  0  0  0  0
 17 18  1  0  0  0  0
 18 19  2  0  0  0  0
 19 20  1  0  0  0  0
 20 21  2  0  0  0  0
 22 23  2  0  0  0  0
 23 24  1  0  0  0  0
 23 32  1  0  0  0  0
 24 25  2  0  0  0  0
 25 26  1  0  0  0  0
 26 27  1  0  0  0  0
 26 31  1  0  0  0  0
 27 28  1  0  0  0  0
 27 29  1  0  0  0  0
 27 30  1  0  0  0  0
 31 32  2  0  0  0  0
 32 33  1  0  0  0  0
 33 34  1  0  0  0  0
  1 35  1  0  0  0  0
  1 36  1  0  0  0  0
  1 37  1  0  0  0  0
  3 38  1  0  0  0  0
  3 39  1  0  0  0  0
  3 40  1  0  0  0  0
  4 41  1  0  0  0  0
  4 42  1  0  0  0  0
  5 43  1  0  0  0  0
  5 44  1  0  0  0  0
  9 45  1  0  0  0  0
 10 46  1  0  0  0  0
 10 47  1  0  0  0  0
 11 48  1  0  0  0  0
 12 49  1  0  0  0  0
 12 50  1  0  0  0  0
 13 51  1  0  0  0  0
 13 52  1  0  0  0  0
 14 53  1  0  0  0  0
 15 54  1  0  0  0  0
 17 55  1  0  0  0  0
 18 56  1  0  0  0  0
 19 57  1  0  0  0  0
 20 58  1  0  0  0  0
 21 59  1  0  0  0  0
 24 60  1  0  0  0  0
 25 61  1  0  0  0  0
 26 62  1  0  0  0  0
 31 63  1  0  0  0  0
 33 64  1  0  0  0  0
M  END
> <ID>
CHEMBL1084676

> <IC50[nM]>
14

$$$$
CHEMBL1084676
  -OEChem-05192314313D
 Structure written by MMmdl.
 64 67  0     1  0  0  0  0  0999 V2000
   16.7713   -6.3756   12.0443 C   0  0  0  0  0  0  0  0  0  0  0  0
   15.7514   -7.3133   11.3477 N   0  0  0  0  0  0  0  0  0  0  0  0
   14.9672   -8.1032   12.4119 C   0  0  0  0  0  0  0  0  0  0  0  0
   14.7574   -6.5424   10.4444 C   0  0  0  0  0  0  0  0  0  0  0  0
   15.5368   -5.7840    9.4103 C   0  0  0  0  0  0  0  0  0  0  0  0
   14.7381   -5.4520    8.2799 O   0  0  0  0  0  0  0  0  0  0  0  0
   15.2652   -4.5977    7.4117 C   0  0  0  0  0  0  0  0  0  0  0  0
   16.5030   -4.3780    7.3160 O   0  0  0  0  0  0  0  0  0  0  0  0
   14.3099   -3.9820    6.6658 N   0  0  0  0  0  0  0  0  0  0  0  0
   14.6677   -3.0872    5.5706 C   0  0  0  0  0  0  0  0  0  0  0  0
   14.8962   -3.7746    4.1958 C   0  0  1  0  0  0  0  0  0  0  0  0
   15.0805   -5.3187    4.2370 C   0  0  0  0  0  0  0  0  0  0  0  0
   15.2182   -5.9065    2.8281 C   0  0  0  0  0  0  0  0  0  0  0  0
   14.1002   -5.4125    1.8825 C   0  0  1  0  0  0  0  0  0  0  0  0
   12.7104   -6.0683    2.1249 C   0  0  2  0  0  0  0  0  0  0  0  0
   12.7572   -7.5912    2.0353 C   0  0  0  0  0  0  0  0  0  0  0  0
   12.3235   -8.3758    3.1056 C   0  0  0  0  0  0  0  0  0  0  0  0
   12.4000   -9.7638    3.0213 C   0  0  0  0  0  0  0  0  0  0  0  0
   12.9028  -10.3655    1.8703 C   0  0  0  0  0  0  0  0  0  0  0  0
   13.3226   -9.5904    0.7944 C   0  0  0  0  0  0  0  0  0  0  0  0
   13.2483   -8.2048    0.8778 C   0  0  0  0  0  0  0  0  0  0  0  0
   11.7296   -5.5214    1.1862 N   0  0  0  0  0  0  0  0  0  0  0  0
   11.7939   -4.1799    0.7662 C   0  0  0  0  0  0  0  0  0  0  0  0
   10.7709   -3.7099   -0.0572 C   0  0  0  0  0  0  0  0  0  0  0  0
   10.8098   -2.4057   -0.5391 C   0  0  0  0  0  0  0  0  0  0  0  0
   11.8576   -1.5528   -0.1908 C   0  0  0  0  0  0  0  0  0  0  0  0
   11.9120   -0.1390   -0.7465 C   0  0  0  0  0  0  0  0  0  0  0  0
   10.6726    0.3357   -0.9277 F   0  0  0  0  0  0  0  0  0  0  0  0
   12.5628    0.6909    0.0665 F   0  0  0  0  0  0  0  0  0  0  0  0
   12.5294   -0.1587   -1.9235 F   0  0  0  0  0  0  0  0  0  0  0  0
   12.8610   -2.0226    0.6675 C   0  0  0  0  0  0  0  0  0  0  0  0
   12.8607   -3.3461    1.1326 C   0  0  0  0  0  0  0  0  0  0  0  0
   14.0132   -3.8683    1.9789 C   0  0  1  0  0  0  0  0  0  0  0  0
   13.8046   -3.4607    3.3297 O   0  0  0  0  0  0  0  0  0  0  0  0
   17.3309   -5.8118   11.2834 H   0  0  0  0  0  0  0  0  0  0  0  0
   16.2353   -5.6737   12.7001 H   0  0  0  0  0  0  0  0  0  0  0  0
   17.4711   -6.9761   12.6440 H   0  0  0  0  0  0  0  0  0  0  0  0
   14.2440   -8.7680   11.9169 H   0  0  0  0  0  0  0  0  0  0  0  0
   15.6666   -8.7041   13.0117 H   0  0  0  0  0  0  0  0  0  0  0  0
   14.4308   -7.4017   13.0678 H   0  0  0  0  0  0  0  0  0  0  0  0
   14.0792   -7.2531    9.9494 H   0  0  0  0  0  0  0  0  0  0  0  0
   14.1707   -5.8400   11.0547 H   0  0  0  0  0  0  0  0  0  0  0  0
   15.9169   -4.8558    9.8618 H   0  0  0  0  0  0  0  0  0  0  0  0
   16.3829   -6.4034    9.0780 H   0  0  0  0  0  0  0  0  0  0  0  0
   13.3450   -4.1453    6.8715 H   0  0  0  0  0  0  0  0  0  0  0  0
   13.8564   -2.3538    5.4527 H   0  0  0  0  0  0  0  0  0  0  0  0
   15.5958   -2.5658    5.8478 H   0  0  0  0  0  0  0  0  0  0  0  0
   15.8173   -3.3499    3.7702 H   0  0  0  0  0  0  0  0  0  0  0  0
   15.9874   -5.5551    4.8130 H   0  0  0  0  0  0  0  0  0  0  0  0
   14.2060   -5.7699    4.7285 H   0  0  0  0  0  0  0  0  0  0  0  0
   16.1921   -5.6084    2.4126 H   0  0  0  0  0  0  0  0  0  0  0  0
   15.1681   -7.0034    2.8945 H   0  0  0  0  0  0  0  0  0  0  0  0
   14.4043   -5.6608    0.8550 H   0  0  0  0  0  0  0  0  0  0  0  0
   12.3983   -5.8043    3.1461 H   0  0  0  0  0  0  0  0  0  0  0  0
   11.9300   -7.9079    3.9959 H   0  0  0  0  0  0  0  0  0  0  0  0
   12.0693  -10.3739    3.8489 H   0  0  0  0  0  0  0  0  0  0  0  0
   12.9672  -11.4420    1.8127 H   0  0  0  0  0  0  0  0  0  0  0  0
   13.7036  -10.0617   -0.0995 H   0  0  0  0  0  0  0  0  0  0  0  0
   13.5715   -7.5986    0.0445 H   0  0  0  0  0  0  0  0  0  0  0  0
    9.9486   -4.3586   -0.3206 H   0  0  0  0  0  0  0  0  0  0  0  0
   10.0228   -2.0505   -1.1879 H   0  0  0  0  0  0  0  0  0  0  0  0
   13.6497   -1.3528    0.9768 H   0  0  0  0  0  0  0  0  0  0  0  0
   12.3214   -3.0378    2.0404 H   0  0  0  0  0  0  0  0  0  0  0  0
   14.9531   -3.4430    1.5973 H   0  0  0  0  0  0  0  0  0  0  0  0
  1  2  1  0  0  0  0
  2  3  1  0  0  0  0
  2  4  1  0  0  0  0
  4  5  1  0  0  0  0
  5  6  1  0  0  0  0
  6  7  1  0  0  0  0
  7  8  2  0  0  0  0
  7  9  1  0  0  0  0
  9 10  1  0  0  0  0
 10 11  1  0  0  0  0
 11 12  1  0  0  0  0
 11 34  1  0  0  0  0
 12 13  1  0  0  0  0
 13 14  1  0  0  0  0
 14 15  1  0  0  0  0
 14 33  1  0  0  0  0
 15 16  1  0  0  0  0
 15 22  1  0  0  0  0
 16 17  2  0  0  0  0
 16 21  1  0  0  0  0
 17 18  1  0  0  0  0
 18 19  2  0  0  0  0
 19 20  1  0  0  0  0
 20 21  2  0  0  0  0
 22 23  2  0  0  0  0
 23 24  1  0  0  0  0
 23 32  1  0  0  0  0
 24 25  2  0  0  0  0
 25 26  1  0  0  0  0
 26 27  1  0  0  0  0
 26 31  2  0  0  0  0
 27 28  1  0  0  0  0
 27 29  1  0  0  0  0
 27 30  1  0  0  0  0
 31 32  1  0  0  0  0
 32 33  1  0  0  0  0
 33 34  1  0  0  0  0
  1 35  1  0  0  0  0
  1 36  1  0  0  0  0
  1 37  1  0  0  0  0
  3 38  1  0  0  0  0
  3 39  1  0  0  0  0
  3 40  1  0  0  0  0
  4 41  1  0  0  0  0
  4 42  1  0  0  0  0
  5 43  1  0  0  0  0
  5 44  1  0  0  0  0
  9 45  1  0  0  0  0
 10 46  1  0  0  0  0
 10 47  1  0  0  0  0
 11 48  1  0  0  0  0
 12 49  1  0  0  0  0
 12 50  1  0  0  0  0
 13 51  1  0  0  0  0
 13 52  1  0  0  0  0
 14 53  1  0  0  0  0
 15 54  1  0  0  0  0
 17 55  1  0  0  0  0
 18 56  1  0  0  0  0
 19 57  1  0  0  0  0
 20 58  1  0  0  0  0
 21 59  1  0  0  0  0
 24 60  1  0  0  0  0
 25 61  1  0  0  0  0
 31 62  1  0  0  0  0
 32 63  1  0  0  0  0
 33 64  1  0  0  0  0
M  END
> <ID>
CHEMBL1084676

> <IC50[nM]>
14

$$$$
CHEMBL1084676
  -OEChem-05192314313D
 Structure written by MMmdl.
 64 67  0     1  0  0  0  0  0999 V2000
   16.7713   -6.3756   12.0443 C   0  0  0  0  0  0  0  0  0  0  0  0
   15.7514   -7.3133   11.3477 N   0  0  0  0  0  0  0  0  0  0  0  0
   14.9672   -8.1032   12.4119 C   0  0  0  0  0  0  0  0  0  0  0  0
   14.7574   -6.5424   10.4444 C   0  0  0  0  0  0  0  0  0  0  0  0
   15.5368   -5.7840    9.4103 C   0  0  0  0  0  0  0  0  0  0  0  0
   14.7381   -5.4520    8.2799 O   0  0  0  0  0  0  0  0  0  0  0  0
   15.2652   -4.5977    7.4117 C   0  0  0  0  0  0  0  0  0  0  0  0
   16.5030   -4.3780    7.3160 O   0  0  0  0  0  0  0  0  0  0  0  0
   14.3099   -3.9820    6.6658 N   0  0  0  0  0  0  0  0  0  0  0  0
   14.6677   -3.0872    5.5706 C   0  0  0  0  0  0  0  0  0  0  0  0
   14.8962   -3.7746    4.1958 C   0  0  1  0  0  0  0  0  0  0  0  0
   15.0805   -5.3187    4.2370 C   0  0  0  0  0  0  0  0  0  0  0  0
   15.2182   -5.9065    2.8281 C   0  0  0  0  0  0  0  0  0  0  0  0
   14.1002   -5.4125    1.8825 C   0  0  1  0  0  0  0  0  0  0  0  0
   12.7104   -6.0683    2.1249 C   0  0  2  0  0  0  0  0  0  0  0  0
   12.7572   -7.5912    2.0353 C   0  0  0  0  0  0  0  0  0  0  0  0
   12.3235   -8.3758    3.1056 C   0  0  0  0  0  0  0  0  0  0  0  0
   12.4000   -9.7638    3.0213 C   0  0  0  0  0  0  0  0  0  0  0  0
   12.9028  -10.3655    1.8703 C   0  0  0  0  0  0  0  0  0  0  0  0
   13.3226   -9.5904    0.7944 C   0  0  0  0  0  0  0  0  0  0  0  0
   13.2483   -8.2048    0.8778 C   0  0  0  0  0  0  0  0  0  0  0  0
   11.7296   -5.5214    1.1862 N   0  0  0  0  0  0  0  0  0  0  0  0
   11.7939   -4.1799    0.7662 C   0  0  0  0  0  0  0  0  0  0  0  0
   10.7709   -3.7099   -0.0572 C   0  0  0  0  0  0  0  0  0  0  0  0
   10.8098   -2.4057   -0.5391 C   0  0  0  0  0  0  0  0  0  0  0  0
   11.8576   -1.5528   -0.1908 C   0  0  0  0  0  0  0  0  0  0  0  0
   11.9120   -0.1390   -0.7465 C   0  0  0  0  0  0  0  0  0  0  0  0
   10.6726    0.3357   -0.9277 F   0  0  0  0  0  0  0  0  0  0  0  0
   12.5628    0.6909    0.0665 F   0  0  0  0  0  0  0  0  0  0  0  0
   12.5294   -0.1587   -1.9235 F   0  0  0  0  0  0  0  0  0  0  0  0
   12.8610   -2.0226    0.6675 C   0  0  0  0  0  0  0  0  0  0  0  0
   12.8607   -3.3461    1.1326 C   0  0  0  0  0  0  0  0  0  0  0  0
   14.0132   -3.8683    1.9789 C   0  0  1  0  0  0  0  0  0  0  0  0
   13.8046   -3.4607    3.3297 O   0  0  0  0  0  0  0  0  0  0  0  0
   17.3309   -5.8118   11.2834 H   0  0  0  0  0  0  0  0  0  0  0  0
   16.2353   -5.6737   12.7001 H   0  0  0  0  0  0  0  0  0  0  0  0
   17.4711   -6.9761   12.6440 H   0  0  0  0  0  0  0  0  0  0  0  0
   14.2440   -8.7680   11.9169 H   0  0  0  0  0  0  0  0  0  0  0  0
   15.6666   -8.7041   13.0117 H   0  0  0  0  0  0  0  0  0  0  0  0
   14.4308   -7.4017   13.0678 H   0  0  0  0  0  0  0  0  0  0  0  0
   14.0792   -7.2531    9.9494 H   0  0  0  0  0  0  0  0  0  0  0  0
   14.1707   -5.8400   11.0547 H   0  0  0  0  0  0  0  0  0  0  0  0
   15.9169   -4.8558    9.8618 H   0  0  0  0  0  0  0  0  0  0  0  0
   16.3829   -6.4034    9.0780 H   0  0  0  0  0  0  0  0  0  0  0  0
   13.3450   -4.1453    6.8715 H   0  0  0  0  0  0  0  0  0  0  0  0
   13.8564   -2.3538    5.4527 H   0  0  0  0  0  0  0  0  0  0  0  0
   15.5958   -2.5658    5.8478 H   0  0  0  0  0  0  0  0  0  0  0  0
   15.8173   -3.3499    3.7702 H   0  0  0  0  0  0  0  0  0  0  0  0
   15.9874   -5.5551    4.8130 H   0  0  0  0  0  0  0  0  0  0  0  0
   14.2060   -5.7699    4.7285 H   0  0  0  0  0  0  0  0  0  0  0  0
   16.1921   -5.6084    2.4126 H   0  0  0  0  0  0  0  0  0  0  0  0
   15.1681   -7.0034    2.8945 H   0  0  0  0  0  0  0  0  0  0  0  0
   14.4043   -5.6608    0.8550 H   0  0  0  0  0  0  0  0  0  0  0  0
   12.3983   -5.8043    3.1461 H   0  0  0  0  0  0  0  0  0  0  0  0
   11.9300   -7.9079    3.9959 H   0  0  0  0  0  0  0  0  0  0  0  0
   12.0693  -10.3739    3.8489 H   0  0  0  0  0  0  0  0  0  0  0  0
   12.9672  -11.4420    1.8127 H   0  0  0  0  0  0  0  0  0  0  0  0
   13.7036  -10.0617   -0.0995 H   0  0  0  0  0  0  0  0  0  0  0  0
   13.5715   -7.5986    0.0445 H   0  0  0  0  0  0  0  0  0  0  0  0
   10.7403   -4.3720   -0.9351 H   0  0  0  0  0  0  0  0  0  0  0  0
    9.8344   -3.8107    0.5109 H   0  0  0  0  0  0  0  0  0  0  0  0
   10.0228   -2.0505   -1.1879 H   0  0  0  0  0  0  0  0  0  0  0  0
   13.6497   -1.3528    0.9768 H   0  0  0  0  0  0  0  0  0  0  0  0
   14.9531   -3.4430    1.5973 H   0  0  0  0  0  0  0  0  0  0  0  0
  1  2  1  0  0  0  0
  2  3  1  0  0  0  0
  2  4  1  0  0  0  0
  4  5  1  0  0  0  0
  5  6  1  0  0  0  0
  6  7  1  0  0  0  0
  7  8  2  0  0  0  0
  7  9  1  0  0  0  0
  9 10  1  0  0  0  0
 10 11  1  0  0  0  0
 11 12  1  0  0  0  0
 11 34  1  0  0  0  0
 12 13  1  0  0  0  0
 13 14  1  0  0  0  0
 14 15  1  0  0  0  0
 14 33  1  0  0  0  0
 15 16  1  0  0  0  0
 15 22  1  0  0  0  0
 16 17  2  0  0  0  0
 16 21  1  0  0  0  0
 17 18  1  0  0  0  0
 18 19  2  0  0  0  0
 19 20  1  0  0  0  0
 20 21  2  0  0  0  0
 22 23  2  0  0  0  0
 23 24  1  0  0  0  0
 23 32  1  0  0  0  0
 24 25  1  0  0  0  0
 25 26  2  0  0  0  0
 26 27  1  0  0  0  0
 26 31  1  0  0  0  0
 27 28  1  0  0  0  0
 27 29  1  0  0  0  0
 27 30  1  0  0  0  0
 31 32  2  0  0  0  0
 32 33  1  0  0  0  0
 33 34  1  0  0  0  0
  1 35  1  0  0  0  0
  1 36  1  0  0  0  0
  1 37  1  0  0  0  0
  3 38  1  0  0  0  0
  3 39  1  0  0  0  0
  3 40  1  0  0  0  0
  4 41  1  0  0  0  0
  4 42  1  0  0  0  0
  5 43  1  0  0  0  0
  5 44  1  0  0  0  0
  9 45  1  0  0  0  0
 10 46  1  0  0  0  0
 10 47  1  0  0  0  0
 11 48  1  0  0  0  0
 12 49  1  0  0  0  0
 12 50  1  0  0  0  0
 13 51  1  0  0  0  0
 13 52  1  0  0  0  0
 14 53  1  0  0  0  0
 15 54  1  0  0  0  0
 17 55  1  0  0  0  0
 18 56  1  0  0  0  0
 19 57  1  0  0  0  0
 20 58  1  0  0  0  0
 21 59  1  0  0  0  0
 24 60  1  0  0  0  0
 24 61  1  0  0  0  0
 25 62  1  0  0  0  0
 31 63  1  0  0  0  0
 33 64  1  0  0  0  0
M  END
> <ID>
CHEMBL1084676

> <IC50[nM]>
14

$$$$
CHEMBL1084676
  -OEChem-05192314313D
 Structure written by MMmdl.
 64 67  0     1  0  0  0  0  0999 V2000
   16.7713   -6.3756   12.0443 C   0  0  0  0  0  0  0  0  0  0  0  0
   15.7514   -7.3133   11.3477 N   0  0  0  0  0  0  0  0  0  0  0  0
   14.9672   -8.1032   12.4119 C   0  0  0  0  0  0  0  0  0  0  0  0
   14.7574   -6.5424   10.4444 C   0  0  0  0  0  0  0  0  0  0  0  0
   15.5368   -5.7840    9.4103 C   0  0  0  0  0  0  0  0  0  0  0  0
   14.7381   -5.4520    8.2799 O   0  0  0  0  0  0  0  0  0  0  0  0
   15.2652   -4.5977    7.4117 C   0  0  0  0  0  0  0  0  0  0  0  0
   16.5030   -4.3780    7.3160 O   0  0  0  0  0  0  0  0  0  0  0  0
   14.3099   -3.9820    6.6658 N   0  0  0  0  0  0  0  0  0  0  0  0
   14.6677   -3.0872    5.5706 C   0  0  0  0  0  0  0  0  0  0  0  0
   14.8962   -3.7746    4.1958 C   0  0  1  0  0  0  0  0  0  0  0  0
   15.0805   -5.3187    4.2370 C   0  0  0  0  0  0  0  0  0  0  0  0
   15.2182   -5.9065    2.8281 C   0  0  0  0  0  0  0  0  0  0  0  0
   14.1002   -5.4125    1.8825 C   0  0  1  0  0  0  0  0  0  0  0  0
   12.7104   -6.0683    2.1249 C   0  0  2  0  0  0  0  0  0  0  0  0
   12.7572   -7.5912    2.0353 C   0  0  0  0  0  0  0  0  0  0  0  0
   12.3235   -8.3758    3.1056 C   0  0  0  0  0  0  0  0  0  0  0  0
   12.4000   -9.7638    3.0213 C   0  0  0  0  0  0  0  0  0  0  0  0
   12.9028  -10.3655    1.8703 C   0  0  0  0  0  0  0  0  0  0  0  0
   13.3226   -9.5904    0.7944 C   0  0  0  0  0  0  0  0  0  0  0  0
   13.2483   -8.2048    0.8778 C   0  0  0  0  0  0  0  0  0  0  0  0
   11.7296   -5.5214    1.1862 N   0  0  0  0  0  0  0  0  0  0  0  0
   11.7939   -4.1799    0.7662 C   0  0  0  0  0  0  0  0  0  0  0  0
   10.7709   -3.7099   -0.0572 C   0  0  0  0  0  0  0  0  0  0  0  0
   10.8098   -2.4057   -0.5391 C   0  0  0  0  0  0  0  0  0  0  0  0
   11.8576   -1.5528   -0.1908 C   0  0  0  0  0  0  0  0  0  0  0  0
   11.9120   -0.1390   -0.7465 C   0  0  0  0  0  0  0  0  0  0  0  0
   10.6726    0.3357   -0.9277 F   0  0  0  0  0  0  0  0  0  0  0  0
   12.5628    0.6909    0.0665 F   0  0  0  0  0  0  0  0  0  0  0  0
   12.5294   -0.1587   -1.9235 F   0  0  0  0  0  0  0  0  0  0  0  0
   12.8610   -2.0226    0.6675 C   0  0  0  0  0  0  0  0  0  0  0  0
   12.8607   -3.3461    1.1326 C   0  0  0  0  0  0  0  0  0  0  0  0
   14.0132   -3.8683    1.9789 C   0  0  1  0  0  0  0  0  0  0  0  0
   13.8046   -3.4607    3.3297 O   0  0  0  0  0  0  0  0  0  0  0  0
   17.3309   -5.8118   11.2834 H   0  0  0  0  0  0  0  0  0  0  0  0
   16.2353   -5.6737   12.7001 H   0  0  0  0  0  0  0  0  0  0  0  0
   17.4711   -6.9761   12.6440 H   0  0  0  0  0  0  0  0  0  0  0  0
   14.2440   -8.7680   11.9169 H   0  0  0  0  0  0  0  0  0  0  0  0
   15.6666   -8.7041   13.0117 H   0  0  0  0  0  0  0  0  0  0  0  0
   14.4308   -7.4017   13.0678 H   0  0  0  0  0  0  0  0  0  0  0  0
   14.0792   -7.2531    9.9494 H   0  0  0  0  0  0  0  0  0  0  0  0
   14.1707   -5.8400   11.0547 H   0  0  0  0  0  0  0  0  0  0  0  0
   15.9169   -4.8558    9.8618 H   0  0  0  0  0  0  0  0  0  0  0  0
   16.3829   -6.4034    9.0780 H   0  0  0  0  0  0  0  0  0  0  0  0
   16.6592   -3.7348    6.6345 H   0  0  0  0  0  0  0  0  0  0  0  0
   13.8564   -2.3538    5.4527 H   0  0  0  0  0  0  0  0  0  0  0  0
   15.5958   -2.5658    5.8478 H   0  0  0  0  0  0  0  0  0  0  0  0
   15.8173   -3.3499    3.7702 H   0  0  0  0  0  0  0  0  0  0  0  0
   15.9874   -5.5551    4.8130 H   0  0  0  0  0  0  0  0  0  0  0  0
   14.2060   -5.7699    4.7285 H   0  0  0  0  0  0  0  0  0  0  0  0
   16.1921   -5.6084    2.4126 H   0  0  0  0  0  0  0  0  0  0  0  0
   15.1681   -7.0034    2.8945 H   0  0  0  0  0  0  0  0  0  0  0  0
   14.4043   -5.6608    0.8550 H   0  0  0  0  0  0  0  0  0  0  0  0
   12.3983   -5.8043    3.1461 H   0  0  0  0  0  0  0  0  0  0  0  0
   11.9300   -7.9079    3.9959 H   0  0  0  0  0  0  0  0  0  0  0  0
   12.0693  -10.3739    3.8489 H   0  0  0  0  0  0  0  0  0  0  0  0
   12.9672  -11.4420    1.8127 H   0  0  0  0  0  0  0  0  0  0  0  0
   13.7036  -10.0617   -0.0995 H   0  0  0  0  0  0  0  0  0  0  0  0
   13.5715   -7.5986    0.0445 H   0  0  0  0  0  0  0  0  0  0  0  0
    9.9486   -4.3586   -0.3206 H   0  0  0  0  0  0  0  0  0  0  0  0
   10.0228   -2.0505   -1.1879 H   0  0  0  0  0  0  0  0  0  0  0  0
   11.2814   -1.1935    0.6746 H   0  0  0  0  0  0  0  0  0  0  0  0
   13.6497   -1.3528    0.9768 H   0  0  0  0  0  0  0  0  0  0  0  0
   14.9531   -3.4430    1.5973 H   0  0  0  0  0  0  0  0  0  0  0  0
  1  2  1  0  0  0  0
  2  3  1  0  0  0  0
  2  4  1  0  0  0  0
  4  5  1  0  0  0  0
  5  6  1  0  0  0  0
  6  7  1  0  0  0  0
  7  8  1  0  0  0  0
  7  9  2  0  0  0  0
  9 10  1  0  0  0  0
 10 11  1  0  0  0  0
 11 12  1  0  0  0  0
 11 34  1  0  0  0  0
 12 13  1  0  0  0  0
 13 14  1  0  0  0  0
 14 15  1  0  0  0  0
 14 33  1  0  0  0  0
 15 16  1  0  0  0  0
 15 22  1  0  0  0  0
 16 17  2  0  0  0  0
 16 21  1  0  0  0  0
 17 18  1  0  0  0  0
 18 19  2  0  0  0  0
 19 20  1  0  0  0  0
 20 21  2  0  0  0  0
 22 23  2  0  0  0  0
 23 24  1  0  0  0  0
 23 32  1  0  0  0  0
 24 25  2  0  0  0  0
 25 26  1  0  0  0  0
 26 27  1  0  0  0  0
 26 31  1  0  0  0  0
 27 28  1  0  0  0  0
 27 29  1  0  0  0  0
 27 30  1  0  0  0  0
 31 32  2  0  0  0  0
 32 33  1  0  0  0  0
 33 34  1  0  0  0  0
  1 35  1  0  0  0  0
  1 36  1  0  0  0  0
  1 37  1  0  0  0  0
  3 38  1  0  0  0  0
  3 39  1  0  0  0  0
  3 40  1  0  0  0  0
  4 41  1  0  0  0  0
  4 42  1  0  0  0  0
  5 43  1  0  0  0  0
  5 44  1  0  0  0  0
  8 45  1  0  0  0  0
 10 46  1  0  0  0  0
 10 47  1  0  0  0  0
 11 48  1  0  0  0  0
 12 49  1  0  0  0  0
 12 50  1  0  0  0  0
 13 51  1  0  0  0  0
 13 52  1  0  0  0  0
 14 53  1  0  0  0  0
 15 54  1  0  0  0  0
 17 55  1  0  0  0  0
 18 56  1  0  0  0  0
 19 57  1  0  0  0  0
 20 58  1  0  0  0  0
 21 59  1  0  0  0  0
 24 60  1  0  0  0  0
 25 61  1  0  0  0  0
 26 62  1  0  0  0  0
 31 63  1  0  0  0  0
 33 64  1  0  0  0  0
M  END
> <ID>
CHEMBL1084676

> <IC50[nM]>
14

$$$$
CHEMBL1084676
  -OEChem-05192314313D
 Structure written by MMmdl.
 64 67  0     1  0  0  0  0  0999 V2000
   16.7713   -6.3756   12.0443 C   0  0  0  0  0  0  0  0  0  0  0  0
   15.7514   -7.3133   11.3477 N   0  0  0  0  0  0  0  0  0  0  0  0
   14.9672   -8.1032   12.4119 C   0  0  0  0  0  0  0  0  0  0  0  0
   14.7574   -6.5424   10.4444 C   0  0  0  0  0  0  0  0  0  0  0  0
   15.5368   -5.7840    9.4103 C   0  0  0  0  0  0  0  0  0  0  0  0
   14.7381   -5.4520    8.2799 O   0  0  0  0  0  0  0  0  0  0  0  0
   15.2652   -4.5977    7.4117 C   0  0  0  0  0  0  0  0  0  0  0  0
   16.5030   -4.3780    7.3160 O   0  0  0  0  0  0  0  0  0  0  0  0
   14.3099   -3.9820    6.6658 N   0  0  0  0  0  0  0  0  0  0  0  0
   14.6677   -3.0872    5.5706 C   0  0  0  0  0  0  0  0  0  0  0  0
   14.8962   -3.7746    4.1958 C   0  0  1  0  0  0  0  0  0  0  0  0
   15.0805   -5.3187    4.2370 C   0  0  0  0  0  0  0  0  0  0  0  0
   15.2182   -5.9065    2.8281 C   0  0  0  0  0  0  0  0  0  0  0  0
   14.1002   -5.4125    1.8825 C   0  0  1  0  0  0  0  0  0  0  0  0
   12.7104   -6.0683    2.1249 C   0  0  2  0  0  0  0  0  0  0  0  0
   12.7572   -7.5912    2.0353 C   0  0  0  0  0  0  0  0  0  0  0  0
   12.3235   -8.3758    3.1056 C   0  0  0  0  0  0  0  0  0  0  0  0
   12.4000   -9.7638    3.0213 C   0  0  0  0  0  0  0  0  0  0  0  0
   12.9028  -10.3655    1.8703 C   0  0  0  0  0  0  0  0  0  0  0  0
   13.3226   -9.5904    0.7944 C   0  0  0  0  0  0  0  0  0  0  0  0
   13.2483   -8.2048    0.8778 C   0  0  0  0  0  0  0  0  0  0  0  0
   11.7296   -5.5214    1.1862 N   0  0  0  0  0  0  0  0  0  0  0  0
   11.7939   -4.1799    0.7662 C   0  0  0  0  0  0  0  0  0  0  0  0
   10.7709   -3.7099   -0.0572 C   0  0  0  0  0  0  0  0  0  0  0  0
   10.8098   -2.4057   -0.5391 C   0  0  0  0  0  0  0  0  0  0  0  0
   11.8576   -1.5528   -0.1908 C   0  0  0  0  0  0  0  0  0  0  0  0
   11.9120   -0.1390   -0.7465 C   0  0  0  0  0  0  0  0  0  0  0  0
   10.6726    0.3357   -0.9277 F   0  0  0  0  0  0  0  0  0  0  0  0
   12.5628    0.6909    0.0665 F   0  0  0  0  0  0  0  0  0  0  0  0
   12.5294   -0.1587   -1.9235 F   0  0  0  0  0  0  0  0  0  0  0  0
   12.8610   -2.0226    0.6675 C   0  0  0  0  0  0  0  0  0  0  0  0
   12.8607   -3.3461    1.1326 C   0  0  0  0  0  0  0  0  0  0  0  0
   14.0132   -3.8683    1.9789 C   0  0  1  0  0  0  0  0  0  0  0  0
   13.8046   -3.4607    3.3297 O   0  0  0  0  0  0  0  0  0  0  0  0
   17.3309   -5.8118   11.2834 H   0  0  0  0  0  0  0  0  0  0  0  0
   16.2353   -5.6737   12.7001 H   0  0  0  0  0  0  0  0  0  0  0  0
   17.4711   -6.9761   12.6440 H   0  0  0  0  0  0  0  0  0  0  0  0
   14.2440   -8.7680   11.9169 H   0  0  0  0  0  0  0  0  0  0  0  0
   15.6666   -8.7041   13.0117 H   0  0  0  0  0  0  0  0  0  0  0  0
   14.4308   -7.4017   13.0678 H   0  0  0  0  0  0  0  0  0  0  0  0
   14.0792   -7.2531    9.9494 H   0  0  0  0  0  0  0  0  0  0  0  0
   14.1707   -5.8400   11.0547 H   0  0  0  0  0  0  0  0  0  0  0  0
   15.9169   -4.8558    9.8618 H   0  0  0  0  0  0  0  0  0  0  0  0
   16.3829   -6.4034    9.0780 H   0  0  0  0  0  0  0  0  0  0  0  0
   16.6592   -3.7348    6.6345 H   0  0  0  0  0  0  0  0  0  0  0  0
   13.8564   -2.3538    5.4527 H   0  0  0  0  0  0  0  0  0  0  0  0
   15.5958   -2.5658    5.8478 H   0  0  0  0  0  0  0  0  0  0  0  0
   15.8173   -3.3499    3.7702 H   0  0  0  0  0  0  0  0  0  0  0  0
   15.9874   -5.5551    4.8130 H   0  0  0  0  0  0  0  0  0  0  0  0
   14.2060   -5.7699    4.7285 H   0  0  0  0  0  0  0  0  0  0  0  0
   16.1921   -5.6084    2.4126 H   0  0  0  0  0  0  0  0  0  0  0  0
   15.1681   -7.0034    2.8945 H   0  0  0  0  0  0  0  0  0  0  0  0
   14.4043   -5.6608    0.8550 H   0  0  0  0  0  0  0  0  0  0  0  0
   12.3983   -5.8043    3.1461 H   0  0  0  0  0  0  0  0  0  0  0  0
   11.9300   -7.9079    3.9959 H   0  0  0  0  0  0  0  0  0  0  0  0
   12.0693  -10.3739    3.8489 H   0  0  0  0  0  0  0  0  0  0  0  0
   12.9672  -11.4420    1.8127 H   0  0  0  0  0  0  0  0  0  0  0  0
   13.7036  -10.0617   -0.0995 H   0  0  0  0  0  0  0  0  0  0  0  0
   13.5715   -7.5986    0.0445 H   0  0  0  0  0  0  0  0  0  0  0  0
    9.9486   -4.3586   -0.3206 H   0  0  0  0  0  0  0  0  0  0  0  0
   10.0228   -2.0505   -1.1879 H   0  0  0  0  0  0  0  0  0  0  0  0
   13.6497   -1.3528    0.9768 H   0  0  0  0  0  0  0  0  0  0  0  0
   12.3214   -3.0378    2.0404 H   0  0  0  0  0  0  0  0  0  0  0  0
   14.9531   -3.4430    1.5973 H   0  0  0  0  0  0  0  0  0  0  0  0
  1  2  1  0  0  0  0
  2  3  1  0  0  0  0
  2  4  1  0  0  0  0
  4  5  1  0  0  0  0
  5  6  1  0  0  0  0
  6  7  1  0  0  0  0
  7  8  1  0  0  0  0
  7  9  2  0  0  0  0
  9 10  1  0  0  0  0
 10 11  1  0  0  0  0
 11 12  1  0  0  0  0
 11 34  1  0  0  0  0
 12 13  1  0  0  0  0
 13 14  1  0  0  0  0
 14 15  1  0  0  0  0
 14 33  1  0  0  0  0
 15 16  1  0  0  0  0
 15 22  1  0  0  0  0
 16 17  2  0  0  0  0
 16 21  1  0  0  0  0
 17 18  1  0  0  0  0
 18 19  2  0  0  0  0
 19 20  1  0  0  0  0
 20 21  2  0  0  0  0
 22 23  2  0  0  0  0
 23 24  1  0  0  0  0
 23 32  1  0  0  0  0
 24 25  2  0  0  0  0
 25 26  1  0  0  0  0
 26 27  1  0  0  0  0
 26 31  2  0  0  0  0
 27 28  1  0  0  0  0
 27 29  1  0  0  0  0
 27 30  1  0  0  0  0
 31 32  1  0  0  0  0
 32 33  1  0  0  0  0
 33 34  1  0  0  0  0
  1 35  1  0  0  0  0
  1 36  1  0  0  0  0
  1 37  1  0  0  0  0
  3 38  1  0  0  0  0
  3 39  1  0  0  0  0
  3 40  1  0  0  0  0
  4 41  1  0  0  0  0
  4 42  1  0  0  0  0
  5 43  1  0  0  0  0
  5 44  1  0  0  0  0
  8 45  1  0  0  0  0
 10 46  1  0  0  0  0
 10 47  1  0  0  0  0
 11 48  1  0  0  0  0
 12 49  1  0  0  0  0
 12 50  1  0  0  0  0
 13 51  1  0  0  0  0
 13 52  1  0  0  0  0
 14 53  1  0  0  0  0
 15 54  1  0  0  0  0
 17 55  1  0  0  0  0
 18 56  1  0  0  0  0
 19 57  1  0  0  0  0
 20 58  1  0  0  0  0
 21 59  1  0  0  0  0
 24 60  1  0  0  0  0
 25 61  1  0  0  0  0
 31 62  1  0  0  0  0
 32 63  1  0  0  0  0
 33 64  1  0  0  0  0
M  END
> <ID>
CHEMBL1084676

> <IC50[nM]>
14

$$$$
CHEMBL1084676
  -OEChem-05192314313D
 Structure written by MMmdl.
 64 67  0     1  0  0  0  0  0999 V2000
   16.7713   -6.3756   12.0443 C   0  0  0  0  0  0  0  0  0  0  0  0
   15.7514   -7.3133   11.3477 N   0  0  0  0  0  0  0  0  0  0  0  0
   14.9672   -8.1032   12.4119 C   0  0  0  0  0  0  0  0  0  0  0  0
   14.7574   -6.5424   10.4444 C   0  0  0  0  0  0  0  0  0  0  0  0
   15.5368   -5.7840    9.4103 C   0  0  0  0  0  0  0  0  0  0  0  0
   14.7381   -5.4520    8.2799 O   0  0  0  0  0  0  0  0  0  0  0  0
   15.2652   -4.5977    7.4117 C   0  0  0  0  0  0  0  0  0  0  0  0
   16.5030   -4.3780    7.3160 O   0  0  0  0  0  0  0  0  0  0  0  0
   14.3099   -3.9820    6.6658 N   0  0  0  0  0  0  0  0  0  0  0  0
   14.6677   -3.0872    5.5706 C   0  0  0  0  0  0  0  0  0  0  0  0
   14.8962   -3.7746    4.1958 C   0  0  1  0  0  0  0  0  0  0  0  0
   15.0805   -5.3187    4.2370 C   0  0  0  0  0  0  0  0  0  0  0  0
   15.2182   -5.9065    2.8281 C   0  0  0  0  0  0  0  0  0  0  0  0
   14.1002   -5.4125    1.8825 C   0  0  1  0  0  0  0  0  0  0  0  0
   12.7104   -6.0683    2.1249 C   0  0  2  0  0  0  0  0  0  0  0  0
   12.7572   -7.5912    2.0353 C   0  0  0  0  0  0  0  0  0  0  0  0
   12.3235   -8.3758    3.1056 C   0  0  0  0  0  0  0  0  0  0  0  0
   12.4000   -9.7638    3.0213 C   0  0  0  0  0  0  0  0  0  0  0  0
   12.9028  -10.3655    1.8703 C   0  0  0  0  0  0  0  0  0  0  0  0
   13.3226   -9.5904    0.7944 C   0  0  0  0  0  0  0  0  0  0  0  0
   13.2483   -8.2048    0.8778 C   0  0  0  0  0  0  0  0  0  0  0  0
   11.7296   -5.5214    1.1862 N   0  0  0  0  0  0  0  0  0  0  0  0
   11.7939   -4.1799    0.7662 C   0  0  0  0  0  0  0  0  0  0  0  0
   10.7709   -3.7099   -0.0572 C   0  0  0  0  0  0  0  0  0  0  0  0
   10.8098   -2.4057   -0.5391 C   0  0  0  0  0  0  0  0  0  0  0  0
   11.8576   -1.5528   -0.1908 C   0  0  0  0  0  0  0  0  0  0  0  0
   11.9120   -0.1390   -0.7465 C   0  0  0  0  0  0  0  0  0  0  0  0
   10.6726    0.3357   -0.9277 F   0  0  0  0  0  0  0  0  0  0  0  0
   12.5628    0.6909    0.0665 F   0  0  0  0  0  0  0  0  0  0  0  0
   12.5294   -0.1587   -1.9235 F   0  0  0  0  0  0  0  0  0  0  0  0
   12.8610   -2.0226    0.6675 C   0  0  0  0  0  0  0  0  0  0  0  0
   12.8607   -3.3461    1.1326 C   0  0  0  0  0  0  0  0  0  0  0  0
   14.0132   -3.8683    1.9789 C   0  0  1  0  0  0  0  0  0  0  0  0
   13.8046   -3.4607    3.3297 O   0  0  0  0  0  0  0  0  0  0  0  0
   17.3309   -5.8118   11.2834 H   0  0  0  0  0  0  0  0  0  0  0  0
   16.2353   -5.6737   12.7001 H   0  0  0  0  0  0  0  0  0  0  0  0
   17.4711   -6.9761   12.6440 H   0  0  0  0  0  0  0  0  0  0  0  0
   14.2440   -8.7680   11.9169 H   0  0  0  0  0  0  0  0  0  0  0  0
   15.6666   -8.7041   13.0117 H   0  0  0  0  0  0  0  0  0  0  0  0
   14.4308   -7.4017   13.0678 H   0  0  0  0  0  0  0  0  0  0  0  0
   14.0792   -7.2531    9.9494 H   0  0  0  0  0  0  0  0  0  0  0  0
   14.1707   -5.8400   11.0547 H   0  0  0  0  0  0  0  0  0  0  0  0
   15.9169   -4.8558    9.8618 H   0  0  0  0  0  0  0  0  0  0  0  0
   16.3829   -6.4034    9.0780 H   0  0  0  0  0  0  0  0  0  0  0  0
   16.6592   -3.7348    6.6345 H   0  0  0  0  0  0  0  0  0  0  0  0
   13.8564   -2.3538    5.4527 H   0  0  0  0  0  0  0  0  0  0  0  0
   15.5958   -2.5658    5.8478 H   0  0  0  0  0  0  0  0  0  0  0  0
   15.8173   -3.3499    3.7702 H   0  0  0  0  0  0  0  0  0  0  0  0
   15.9874   -5.5551    4.8130 H   0  0  0  0  0  0  0  0  0  0  0  0
   14.2060   -5.7699    4.7285 H   0  0  0  0  0  0  0  0  0  0  0  0
   16.1921   -5.6084    2.4126 H   0  0  0  0  0  0  0  0  0  0  0  0
   15.1681   -7.0034    2.8945 H   0  0  0  0  0  0  0  0  0  0  0  0
   14.4043   -5.6608    0.8550 H   0  0  0  0  0  0  0  0  0  0  0  0
   12.3983   -5.8043    3.1461 H   0  0  0  0  0  0  0  0  0  0  0  0
   11.9300   -7.9079    3.9959 H   0  0  0  0  0  0  0  0  0  0  0  0
   12.0693  -10.3739    3.8489 H   0  0  0  0  0  0  0  0  0  0  0  0
   12.9672  -11.4420    1.8127 H   0  0  0  0  0  0  0  0  0  0  0  0
   13.7036  -10.0617   -0.0995 H   0  0  0  0  0  0  0  0  0  0  0  0
   13.5715   -7.5986    0.0445 H   0  0  0  0  0  0  0  0  0  0  0  0
   10.7403   -4.3720   -0.9351 H   0  0  0  0  0  0  0  0  0  0  0  0
    9.8344   -3.8107    0.5109 H   0  0  0  0  0  0  0  0  0  0  0  0
   10.0228   -2.0505   -1.1879 H   0  0  0  0  0  0  0  0  0  0  0  0
   13.6497   -1.3528    0.9768 H   0  0  0  0  0  0  0  0  0  0  0  0
   14.9531   -3.4430    1.5973 H   0  0  0  0  0  0  0  0  0  0  0  0
  1  2  1  0  0  0  0
  2  3  1  0  0  0  0
  2  4  1  0  0  0  0
  4  5  1  0  0  0  0
  5  6  1  0  0  0  0
  6  7  1  0  0  0  0
  7  8  1  0  0  0  0
  7  9  2  0  0  0  0
  9 10  1  0  0  0  0
 10 11  1  0  0  0  0
 11 12  1  0  0  0  0
 11 34  1  0  0  0  0
 12 13  1  0  0  0  0
 13 14  1  0  0  0  0
 14 15  1  0  0  0  0
 14 33  1  0  0  0  0
 15 16  1  0  0  0  0
 15 22  1  0  0  0  0
 16 17  2  0  0  0  0
 16 21  1  0  0  0  0
 17 18  1  0  0  0  0
 18 19  2  0  0  0  0
 19 20  1  0  0  0  0
 20 21  2  0  0  0  0
 22 23  2  0  0  0  0
 23 24  1  0  0  0  0
 23 32  1  0  0  0  0
 24 25  1  0  0  0  0
 25 26  2  0  0  0  0
 26 27  1  0  0  0  0
 26 31  1  0  0  0  0
 27 28  1  0  0  0  0
 27 29  1  0  0  0  0
 27 30  1  0  0  0  0
 31 32  2  0  0  0  0
 32 33  1  0  0  0  0
 33 34  1  0  0  0  0
  1 35  1  0  0  0  0
  1 36  1  0  0  0  0
  1 37  1  0  0  0  0
  3 38  1  0  0  0  0
  3 39  1  0  0  0  0
  3 40  1  0  0  0  0
  4 41  1  0  0  0  0
  4 42  1  0  0  0  0
  5 43  1  0  0  0  0
  5 44  1  0  0  0  0
  8 45  1  0  0  0  0
 10 46  1  0  0  0  0
 10 47  1  0  0  0  0
 11 48  1  0  0  0  0
 12 49  1  0  0  0  0
 12 50  1  0  0  0  0
 13 51  1  0  0  0  0
 13 52  1  0  0  0  0
 14 53  1  0  0  0  0
 15 54  1  0  0  0  0
 17 55  1  0  0  0  0
 18 56  1  0  0  0  0
 19 57  1  0  0  0  0
 20 58  1  0  0  0  0
 21 59  1  0  0  0  0
 24 60  1  0  0  0  0
 24 61  1  0  0  0  0
 25 62  1  0  0  0  0
 31 63  1  0  0  0  0
 33 64  1  0  0  0  0
M  END
> <ID>
CHEMBL1084676

> <IC50[nM]>
14

$$$$
