CHEMBL1085666
  -OEChem-05192314313D
 Structure written by MMmdl.
 47 50  0     1  0  0  0  0  0999 V2000
   14.3165   -4.0041    6.7057 N   0  0  0  0  0  0  0  0  0  0  0  0
   14.6800   -3.0520    5.5568 C   0  0  0  0  0  0  0  0  0  0  0  0
   14.9014   -3.7767    4.2034 C   0  0  1  0  0  0  0  0  0  0  0  0
   15.0794   -5.3204    4.2560 C   0  0  0  0  0  0  0  0  0  0  0  0
   15.2134   -5.9116    2.8388 C   0  0  0  0  0  0  0  0  0  0  0  0
   14.1000   -5.4138    1.8842 C   0  0  1  0  0  0  0  0  0  0  0  0
   12.7075   -6.0661    2.1333 C   0  0  2  0  0  0  0  0  0  0  0  0
   12.7523   -7.5906    2.0360 C   0  0  0  0  0  0  0  0  0  0  0  0
   12.3188   -8.3771    3.1048 C   0  0  0  0  0  0  0  0  0  0  0  0
   12.4038   -9.7653    3.0219 C   0  0  0  0  0  0  0  0  0  0  0  0
   12.9145  -10.3670    1.8742 C   0  0  0  0  0  0  0  0  0  0  0  0
   13.3307   -9.5915    0.7997 C   0  0  0  0  0  0  0  0  0  0  0  0
   13.2510   -8.2048    0.8812 C   0  0  0  0  0  0  0  0  0  0  0  0
   11.7043   -5.5100    1.2252 N   0  0  0  0  0  0  0  0  0  0  0  0
   11.7866   -4.1781    0.7837 C   0  0  0  0  0  0  0  0  0  0  0  0
   10.7799   -3.7112   -0.0569 C   0  0  0  0  0  0  0  0  0  0  0  0
   10.8200   -2.4096   -0.5450 C   0  0  0  0  0  0  0  0  0  0  0  0
   11.8586   -1.5528   -0.1813 C   0  0  0  0  0  0  0  0  0  0  0  0
   11.9069   -0.1362   -0.7423 C   0  0  0  0  0  0  0  0  0  0  0  0
   12.5326   -0.1571   -1.9193 F   0  0  0  0  0  0  0  0  0  0  0  0
   10.6732    0.3298   -0.9284 F   0  0  0  0  0  0  0  0  0  0  0  0
   12.5588    0.6950    0.0707 F   0  0  0  0  0  0  0  0  0  0  0  0
   12.8553   -2.0181    0.6851 C   0  0  0  0  0  0  0  0  0  0  0  0
   12.8601   -3.3413    1.1433 C   0  0  0  0  0  0  0  0  0  0  0  0
   14.0134   -3.8725    1.9818 C   0  0  1  0  0  0  0  0  0  0  0  0
   13.8054   -3.4743    3.3377 O   0  0  0  0  0  0  0  0  0  0  0  0
   14.1874   -3.4785    7.5466 H   0  0  0  0  0  0  0  0  0  0  0  0
   13.4706   -4.4883    6.4822 H   0  0  0  0  0  0  0  0  0  0  0  0
   13.8630   -2.3258    5.4340 H   0  0  0  0  0  0  0  0  0  0  0  0
   15.6056   -2.5209    5.8236 H   0  0  0  0  0  0  0  0  0  0  0  0
   15.8199   -3.3621    3.7625 H   0  0  0  0  0  0  0  0  0  0  0  0
   15.9860   -5.5582    4.8318 H   0  0  0  0  0  0  0  0  0  0  0  0
   14.2037   -5.7665    4.7501 H   0  0  0  0  0  0  0  0  0  0  0  0
   16.1900   -5.6199    2.4251 H   0  0  0  0  0  0  0  0  0  0  0  0
   15.1566   -7.0080    2.9065 H   0  0  0  0  0  0  0  0  0  0  0  0
   14.4045   -5.6660    0.8577 H   0  0  0  0  0  0  0  0  0  0  0  0
   12.4142   -5.8127    3.1627 H   0  0  0  0  0  0  0  0  0  0  0  0
   11.9188   -7.9110    3.9931 H   0  0  0  0  0  0  0  0  0  0  0  0
   12.0731  -10.3759    3.8490 H   0  0  0  0  0  0  0  0  0  0  0  0
   12.9873  -11.4432    1.8195 H   0  0  0  0  0  0  0  0  0  0  0  0
   13.7139  -10.0620   -0.0937 H   0  0  0  0  0  0  0  0  0  0  0  0
   13.5759   -7.5986    0.0485 H   0  0  0  0  0  0  0  0  0  0  0  0
   11.7145   -6.0824    0.4053 H   0  0  0  0  0  0  0  0  0  0  0  0
    9.9637   -4.3631   -0.3313 H   0  0  0  0  0  0  0  0  0  0  0  0
   10.0430   -2.0605   -1.2090 H   0  0  0  0  0  0  0  0  0  0  0  0
   13.6353   -1.3436    1.0061 H   0  0  0  0  0  0  0  0  0  0  0  0
   14.9536   -3.4456    1.6027 H   0  0  0  0  0  0  0  0  0  0  0  0
  1  2  1  0  0  0  0
  2  3  1  0  0  0  0
  3  4  1  0  0  0  0
  3 26  1  0  0  0  0
  4  5  1  0  0  0  0
  5  6  1  0  0  0  0
  6  7  1  0  0  0  0
  6 25  1  0  0  0  0
  7  8  1  0  0  0  0
  7 14  1  0  0  0  0
  8  9  2  0  0  0  0
  8 13  1  0  0  0  0
  9 10  1  0  0  0  0
 10 11  2  0  0  0  0
 11 12  1  0  0  0  0
 12 13  2  0  0  0  0
 14 15  1  0  0  0  0
 15 16  2  0  0  0  0
 15 24  1  0  0  0  0
 16 17  1  0  0  0  0
 17 18  2  0  0  0  0
 18 19  1  0  0  0  0
 18 23  1  0  0  0  0
 19 20  1  0  0  0  0
 19 21  1  0  0  0  0
 19 22  1  0  0  0  0
 23 24  2  0  0  0  0
 24 25  1  0  0  0  0
 25 26  1  0  0  0  0
  1 27  1  0  0  0  0
  1 28  1  0  0  0  0
  2 29  1  0  0  0  0
  2 30  1  0  0  0  0
  3 31  1  0  0  0  0
  4 32  1  0  0  0  0
  4 33  1  0  0  0  0
  5 34  1  0  0  0  0
  5 35  1  0  0  0  0
  6 36  1  0  0  0  0
  7 37  1  0  0  0  0
  9 38  1  0  0  0  0
 10 39  1  0  0  0  0
 11 40  1  0  0  0  0
 12 41  1  0  0  0  0
 13 42  1  0  0  0  0
 14 43  1  0  0  0  0
 16 44  1  0  0  0  0
 17 45  1  0  0  0  0
 23 46  1  0  0  0  0
 25 47  1  0  0  0  0
M  END
> <ID>
CHEMBL1085666

> <IC50[nM]>
20

$$$$
CHEMBL1085666
  -OEChem-05192314313D
 Structure written by MMmdl.
 47 50  0     1  0  0  0  0  0999 V2000
   14.3165   -4.0041    6.7057 N   0  0  0  0  0  0  0  0  0  0  0  0
   14.6800   -3.0520    5.5568 C   0  0  0  0  0  0  0  0  0  0  0  0
   14.9014   -3.7767    4.2034 C   0  0  1  0  0  0  0  0  0  0  0  0
   15.0794   -5.3204    4.2560 C   0  0  0  0  0  0  0  0  0  0  0  0
   15.2134   -5.9116    2.8388 C   0  0  0  0  0  0  0  0  0  0  0  0
   14.1000   -5.4138    1.8842 C   0  0  1  0  0  0  0  0  0  0  0  0
   12.7075   -6.0661    2.1333 C   0  0  2  0  0  0  0  0  0  0  0  0
   12.7523   -7.5906    2.0360 C   0  0  0  0  0  0  0  0  0  0  0  0
   12.3188   -8.3771    3.1048 C   0  0  0  0  0  0  0  0  0  0  0  0
   12.4038   -9.7653    3.0219 C   0  0  0  0  0  0  0  0  0  0  0  0
   12.9145  -10.3670    1.8742 C   0  0  0  0  0  0  0  0  0  0  0  0
   13.3307   -9.5915    0.7997 C   0  0  0  0  0  0  0  0  0  0  0  0
   13.2510   -8.2048    0.8812 C   0  0  0  0  0  0  0  0  0  0  0  0
   11.7043   -5.5100    1.2252 N   0  0  0  0  0  0  0  0  0  0  0  0
   11.7866   -4.1781    0.7837 C   0  0  0  0  0  0  0  0  0  0  0  0
   10.7799   -3.7112   -0.0569 C   0  0  0  0  0  0  0  0  0  0  0  0
   10.8200   -2.4096   -0.5450 C   0  0  0  0  0  0  0  0  0  0  0  0
   11.8586   -1.5528   -0.1813 C   0  0  0  0  0  0  0  0  0  0  0  0
   11.9069   -0.1362   -0.7423 C   0  0  0  0  0  0  0  0  0  0  0  0
   12.5326   -0.1571   -1.9193 F   0  0  0  0  0  0  0  0  0  0  0  0
   10.6732    0.3298   -0.9284 F   0  0  0  0  0  0  0  0  0  0  0  0
   12.5588    0.6950    0.0707 F   0  0  0  0  0  0  0  0  0  0  0  0
   12.8553   -2.0181    0.6851 C   0  0  0  0  0  0  0  0  0  0  0  0
   12.8601   -3.3413    1.1433 C   0  0  0  0  0  0  0  0  0  0  0  0
   14.0134   -3.8725    1.9818 C   0  0  1  0  0  0  0  0  0  0  0  0
   13.8054   -3.4743    3.3377 O   0  0  0  0  0  0  0  0  0  0  0  0
   14.1874   -3.4785    7.5466 H   0  0  0  0  0  0  0  0  0  0  0  0
   13.4706   -4.4883    6.4822 H   0  0  0  0  0  0  0  0  0  0  0  0
   13.8630   -2.3258    5.4340 H   0  0  0  0  0  0  0  0  0  0  0  0
   15.6056   -2.5209    5.8236 H   0  0  0  0  0  0  0  0  0  0  0  0
   15.8199   -3.3621    3.7625 H   0  0  0  0  0  0  0  0  0  0  0  0
   15.9860   -5.5582    4.8318 H   0  0  0  0  0  0  0  0  0  0  0  0
   14.2037   -5.7665    4.7501 H   0  0  0  0  0  0  0  0  0  0  0  0
   16.1900   -5.6199    2.4251 H   0  0  0  0  0  0  0  0  0  0  0  0
   15.1566   -7.0080    2.9065 H   0  0  0  0  0  0  0  0  0  0  0  0
   14.4045   -5.6660    0.8577 H   0  0  0  0  0  0  0  0  0  0  0  0
   12.4142   -5.8127    3.1627 H   0  0  0  0  0  0  0  0  0  0  0  0
   11.9188   -7.9110    3.9931 H   0  0  0  0  0  0  0  0  0  0  0  0
   12.0731  -10.3759    3.8490 H   0  0  0  0  0  0  0  0  0  0  0  0
   12.9873  -11.4432    1.8195 H   0  0  0  0  0  0  0  0  0  0  0  0
   13.7139  -10.0620   -0.0937 H   0  0  0  0  0  0  0  0  0  0  0  0
   13.5759   -7.5986    0.0485 H   0  0  0  0  0  0  0  0  0  0  0  0
    9.9637   -4.3631   -0.3313 H   0  0  0  0  0  0  0  0  0  0  0  0
   10.0430   -2.0605   -1.2090 H   0  0  0  0  0  0  0  0  0  0  0  0
   11.2709   -1.1973    0.6779 H   0  0  0  0  0  0  0  0  0  0  0  0
   13.6353   -1.3436    1.0061 H   0  0  0  0  0  0  0  0  0  0  0  0
   14.9536   -3.4456    1.6027 H   0  0  0  0  0  0  0  0  0  0  0  0
  1  2  1  0  0  0  0
  2  3  1  0  0  0  0
  3  4  1  0  0  0  0
  3 26  1  0  0  0  0
  4  5  1  0  0  0  0
  5  6  1  0  0  0  0
  6  7  1  0  0  0  0
  6 25  1  0  0  0  0
  7  8  1  0  0  0  0
  7 14  1  0  0  0  0
  8  9  2  0  0  0  0
  8 13  1  0  0  0  0
  9 10  1  0  0  0  0
 10 11  2  0  0  0  0
 11 12  1  0  0  0  0
 12 13  2  0  0  0  0
 14 15  2  0  0  0  0
 15 16  1  0  0  0  0
 15 24  1  0  0  0  0
 16 17  2  0  0  0  0
 17 18  1  0  0  0  0
 18 19  1  0  0  0  0
 18 23  1  0  0  0  0
 19 20  1  0  0  0  0
 19 21  1  0  0  0  0
 19 22  1  0  0  0  0
 23 24  2  0  0  0  0
 24 25  1  0  0  0  0
 25 26  1  0  0  0  0
  1 27  1  0  0  0  0
  1 28  1  0  0  0  0
  2 29  1  0  0  0  0
  2 30  1  0  0  0  0
  3 31  1  0  0  0  0
  4 32  1  0  0  0  0
  4 33  1  0  0  0  0
  5 34  1  0  0  0  0
  5 35  1  0  0  0  0
  6 36  1  0  0  0  0
  7 37  1  0  0  0  0
  9 38  1  0  0  0  0
 10 39  1  0  0  0  0
 11 40  1  0  0  0  0
 12 41  1  0  0  0  0
 13 42  1  0  0  0  0
 16 43  1  0  0  0  0
 17 44  1  0  0  0  0
 18 45  1  0  0  0  0
 23 46  1  0  0  0  0
 25 47  1  0  0  0  0
M  END
> <ID>
CHEMBL1085666

> <IC50[nM]>
20

$$$$
CHEMBL1085666
  -OEChem-05192314313D
 Structure written by MMmdl.
 47 50  0     1  0  0  0  0  0999 V2000
   14.3165   -4.0041    6.7057 N   0  0  0  0  0  0  0  0  0  0  0  0
   14.6800   -3.0520    5.5568 C   0  0  0  0  0  0  0  0  0  0  0  0
   14.9014   -3.7767    4.2034 C   0  0  1  0  0  0  0  0  0  0  0  0
   15.0794   -5.3204    4.2560 C   0  0  0  0  0  0  0  0  0  0  0  0
   15.2134   -5.9116    2.8388 C   0  0  0  0  0  0  0  0  0  0  0  0
   14.1000   -5.4138    1.8842 C   0  0  1  0  0  0  0  0  0  0  0  0
   12.7075   -6.0661    2.1333 C   0  0  2  0  0  0  0  0  0  0  0  0
   12.7523   -7.5906    2.0360 C   0  0  0  0  0  0  0  0  0  0  0  0
   12.3188   -8.3771    3.1048 C   0  0  0  0  0  0  0  0  0  0  0  0
   12.4038   -9.7653    3.0219 C   0  0  0  0  0  0  0  0  0  0  0  0
   12.9145  -10.3670    1.8742 C   0  0  0  0  0  0  0  0  0  0  0  0
   13.3307   -9.5915    0.7997 C   0  0  0  0  0  0  0  0  0  0  0  0
   13.2510   -8.2048    0.8812 C   0  0  0  0  0  0  0  0  0  0  0  0
   11.7043   -5.5100    1.2252 N   0  0  0  0  0  0  0  0  0  0  0  0
   11.7866   -4.1781    0.7837 C   0  0  0  0  0  0  0  0  0  0  0  0
   10.7799   -3.7112   -0.0569 C   0  0  0  0  0  0  0  0  0  0  0  0
   10.8200   -2.4096   -0.5450 C   0  0  0  0  0  0  0  0  0  0  0  0
   11.8586   -1.5528   -0.1813 C   0  0  0  0  0  0  0  0  0  0  0  0
   11.9069   -0.1362   -0.7423 C   0  0  0  0  0  0  0  0  0  0  0  0
   12.5326   -0.1571   -1.9193 F   0  0  0  0  0  0  0  0  0  0  0  0
   10.6732    0.3298   -0.9284 F   0  0  0  0  0  0  0  0  0  0  0  0
   12.5588    0.6950    0.0707 F   0  0  0  0  0  0  0  0  0  0  0  0
   12.8553   -2.0181    0.6851 C   0  0  0  0  0  0  0  0  0  0  0  0
   12.8601   -3.3413    1.1433 C   0  0  0  0  0  0  0  0  0  0  0  0
   14.0134   -3.8725    1.9818 C   0  0  1  0  0  0  0  0  0  0  0  0
   13.8054   -3.4743    3.3377 O   0  0  0  0  0  0  0  0  0  0  0  0
   14.1874   -3.4785    7.5466 H   0  0  0  0  0  0  0  0  0  0  0  0
   13.4706   -4.4883    6.4822 H   0  0  0  0  0  0  0  0  0  0  0  0
   13.8630   -2.3258    5.4340 H   0  0  0  0  0  0  0  0  0  0  0  0
   15.6056   -2.5209    5.8236 H   0  0  0  0  0  0  0  0  0  0  0  0
   15.8199   -3.3621    3.7625 H   0  0  0  0  0  0  0  0  0  0  0  0
   15.9860   -5.5582    4.8318 H   0  0  0  0  0  0  0  0  0  0  0  0
   14.2037   -5.7665    4.7501 H   0  0  0  0  0  0  0  0  0  0  0  0
   16.1900   -5.6199    2.4251 H   0  0  0  0  0  0  0  0  0  0  0  0
   15.1566   -7.0080    2.9065 H   0  0  0  0  0  0  0  0  0  0  0  0
   14.4045   -5.6660    0.8577 H   0  0  0  0  0  0  0  0  0  0  0  0
   12.4142   -5.8127    3.1627 H   0  0  0  0  0  0  0  0  0  0  0  0
   11.9188   -7.9110    3.9931 H   0  0  0  0  0  0  0  0  0  0  0  0
   12.0731  -10.3759    3.8490 H   0  0  0  0  0  0  0  0  0  0  0  0
   12.9873  -11.4432    1.8195 H   0  0  0  0  0  0  0  0  0  0  0  0
   13.7139  -10.0620   -0.0937 H   0  0  0  0  0  0  0  0  0  0  0  0
   13.5759   -7.5986    0.0485 H   0  0  0  0  0  0  0  0  0  0  0  0
    9.9637   -4.3631   -0.3313 H   0  0  0  0  0  0  0  0  0  0  0  0
   10.0430   -2.0605   -1.2090 H   0  0  0  0  0  0  0  0  0  0  0  0
   13.6353   -1.3436    1.0061 H   0  0  0  0  0  0  0  0  0  0  0  0
   12.3272   -3.0360    2.0559 H   0  0  0  0  0  0  0  0  0  0  0  0
   14.9536   -3.4456    1.6027 H   0  0  0  0  0  0  0  0  0  0  0  0
  1  2  1  0  0  0  0
  2  3  1  0  0  0  0
  3  4  1  0  0  0  0
  3 26  1  0  0  0  0
  4  5  1  0  0  0  0
  5  6  1  0  0  0  0
  6  7  1  0  0  0  0
  6 25  1  0  0  0  0
  7  8  1  0  0  0  0
  7 14  1  0  0  0  0
  8  9  2  0  0  0  0
  8 13  1  0  0  0  0
  9 10  1  0  0  0  0
 10 11  2  0  0  0  0
 11 12  1  0  0  0  0
 12 13  2  0  0  0  0
 14 15  2  0  0  0  0
 15 16  1  0  0  0  0
 15 24  1  0  0  0  0
 16 17  2  0  0  0  0
 17 18  1  0  0  0  0
 18 19  1  0  0  0  0
 18 23  2  0  0  0  0
 19 20  1  0  0  0  0
 19 21  1  0  0  0  0
 19 22  1  0  0  0  0
 23 24  1  0  0  0  0
 24 25  1  0  0  0  0
 25 26  1  0  0  0  0
  1 27  1  0  0  0  0
  1 28  1  0  0  0  0
  2 29  1  0  0  0  0
  2 30  1  0  0  0  0
  3 31  1  0  0  0  0
  4 32  1  0  0  0  0
  4 33  1  0  0  0  0
  5 34  1  0  0  0  0
  5 35  1  0  0  0  0
  6 36  1  0  0  0  0
  7 37  1  0  0  0  0
  9 38  1  0  0  0  0
 10 39  1  0  0  0  0
 11 40  1  0  0  0  0
 12 41  1  0  0  0  0
 13 42  1  0  0  0  0
 16 43  1  0  0  0  0
 17 44  1  0  0  0  0
 23 45  1  0  0  0  0
 24 46  1  0  0  0  0
 25 47  1  0  0  0  0
M  END
> <ID>
CHEMBL1085666

> <IC50[nM]>
20

$$$$
CHEMBL1085666
  -OEChem-05192314313D
 Structure written by MMmdl.
 47 50  0     1  0  0  0  0  0999 V2000
   14.3165   -4.0041    6.7057 N   0  0  0  0  0  0  0  0  0  0  0  0
   14.6800   -3.0520    5.5568 C   0  0  0  0  0  0  0  0  0  0  0  0
   14.9014   -3.7767    4.2034 C   0  0  1  0  0  0  0  0  0  0  0  0
   15.0794   -5.3204    4.2560 C   0  0  0  0  0  0  0  0  0  0  0  0
   15.2134   -5.9116    2.8388 C   0  0  0  0  0  0  0  0  0  0  0  0
   14.1000   -5.4138    1.8842 C   0  0  1  0  0  0  0  0  0  0  0  0
   12.7075   -6.0661    2.1333 C   0  0  2  0  0  0  0  0  0  0  0  0
   12.7523   -7.5906    2.0360 C   0  0  0  0  0  0  0  0  0  0  0  0
   12.3188   -8.3771    3.1048 C   0  0  0  0  0  0  0  0  0  0  0  0
   12.4038   -9.7653    3.0219 C   0  0  0  0  0  0  0  0  0  0  0  0
   12.9145  -10.3670    1.8742 C   0  0  0  0  0  0  0  0  0  0  0  0
   13.3307   -9.5915    0.7997 C   0  0  0  0  0  0  0  0  0  0  0  0
   13.2510   -8.2048    0.8812 C   0  0  0  0  0  0  0  0  0  0  0  0
   11.7043   -5.5100    1.2252 N   0  0  0  0  0  0  0  0  0  0  0  0
   11.7866   -4.1781    0.7837 C   0  0  0  0  0  0  0  0  0  0  0  0
   10.7799   -3.7112   -0.0569 C   0  0  0  0  0  0  0  0  0  0  0  0
   10.8200   -2.4096   -0.5450 C   0  0  0  0  0  0  0  0  0  0  0  0
   11.8586   -1.5528   -0.1813 C   0  0  0  0  0  0  0  0  0  0  0  0
   11.9069   -0.1362   -0.7423 C   0  0  0  0  0  0  0  0  0  0  0  0
   12.5326   -0.1571   -1.9193 F   0  0  0  0  0  0  0  0  0  0  0  0
   10.6732    0.3298   -0.9284 F   0  0  0  0  0  0  0  0  0  0  0  0
   12.5588    0.6950    0.0707 F   0  0  0  0  0  0  0  0  0  0  0  0
   12.8553   -2.0181    0.6851 C   0  0  0  0  0  0  0  0  0  0  0  0
   12.8601   -3.3413    1.1433 C   0  0  0  0  0  0  0  0  0  0  0  0
   14.0134   -3.8725    1.9818 C   0  0  1  0  0  0  0  0  0  0  0  0
   13.8054   -3.4743    3.3377 O   0  0  0  0  0  0  0  0  0  0  0  0
   14.1874   -3.4785    7.5466 H   0  0  0  0  0  0  0  0  0  0  0  0
   13.4706   -4.4883    6.4822 H   0  0  0  0  0  0  0  0  0  0  0  0
   13.8630   -2.3258    5.4340 H   0  0  0  0  0  0  0  0  0  0  0  0
   15.6056   -2.5209    5.8236 H   0  0  0  0  0  0  0  0  0  0  0  0
   15.8199   -3.3621    3.7625 H   0  0  0  0  0  0  0  0  0  0  0  0
   15.9860   -5.5582    4.8318 H   0  0  0  0  0  0  0  0  0  0  0  0
   14.2037   -5.7665    4.7501 H   0  0  0  0  0  0  0  0  0  0  0  0
   16.1900   -5.6199    2.4251 H   0  0  0  0  0  0  0  0  0  0  0  0
   15.1566   -7.0080    2.9065 H   0  0  0  0  0  0  0  0  0  0  0  0
   14.4045   -5.6660    0.8577 H   0  0  0  0  0  0  0  0  0  0  0  0
   12.4142   -5.8127    3.1627 H   0  0  0  0  0  0  0  0  0  0  0  0
   11.9188   -7.9110    3.9931 H   0  0  0  0  0  0  0  0  0  0  0  0
   12.0731  -10.3759    3.8490 H   0  0  0  0  0  0  0  0  0  0  0  0
   12.9873  -11.4432    1.8195 H   0  0  0  0  0  0  0  0  0  0  0  0
   13.7139  -10.0620   -0.0937 H   0  0  0  0  0  0  0  0  0  0  0  0
   13.5759   -7.5986    0.0485 H   0  0  0  0  0  0  0  0  0  0  0  0
   10.7655   -4.3767   -0.9326 H   0  0  0  0  0  0  0  0  0  0  0  0
    9.8344   -3.8123    0.4960 H   0  0  0  0  0  0  0  0  0  0  0  0
   10.0430   -2.0605   -1.2090 H   0  0  0  0  0  0  0  0  0  0  0  0
   13.6353   -1.3436    1.0061 H   0  0  0  0  0  0  0  0  0  0  0  0
   14.9536   -3.4456    1.6027 H   0  0  0  0  0  0  0  0  0  0  0  0
  1  2  1  0  0  0  0
  2  3  1  0  0  0  0
  3  4  1  0  0  0  0
  3 26  1  0  0  0  0
  4  5  1  0  0  0  0
  5  6  1  0  0  0  0
  6  7  1  0  0  0  0
  6 25  1  0  0  0  0
  7  8  1  0  0  0  0
  7 14  1  0  0  0  0
  8  9  2  0  0  0  0
  8 13  1  0  0  0  0
  9 10  1  0  0  0  0
 10 11  2  0  0  0  0
 11 12  1  0  0  0  0
 12 13  2  0  0  0  0
 14 15  2  0  0  0  0
 15 16  1  0  0  0  0
 15 24  1  0  0  0  0
 16 17  1  0  0  0  0
 17 18  2  0  0  0  0
 18 19  1  0  0  0  0
 18 23  1  0  0  0  0
 19 20  1  0  0  0  0
 19 21  1  0  0  0  0
 19 22  1  0  0  0  0
 23 24  2  0  0  0  0
 24 25  1  0  0  0  0
 25 26  1  0  0  0  0
  1 27  1  0  0  0  0
  1 28  1  0  0  0  0
  2 29  1  0  0  0  0
  2 30  1  0  0  0  0
  3 31  1  0  0  0  0
  4 32  1  0  0  0  0
  4 33  1  0  0  0  0
  5 34  1  0  0  0  0
  5 35  1  0  0  0  0
  6 36  1  0  0  0  0
  7 37  1  0  0  0  0
  9 38  1  0  0  0  0
 10 39  1  0  0  0  0
 11 40  1  0  0  0  0
 12 41  1  0  0  0  0
 13 42  1  0  0  0  0
 16 43  1  0  0  0  0
 16 44  1  0  0  0  0
 17 45  1  0  0  0  0
 23 46  1  0  0  0  0
 25 47  1  0  0  0  0
M  END
> <ID>
CHEMBL1085666

> <IC50[nM]>
20

$$$$
