CHEMBL1086410
  -OEChem-05192314313D
 Structure written by MMmdl.
 59 62  0     1  0  0  0  0  0999 V2000
   15.2901   -4.6437    7.5383 C   0  0  0  0  0  0  0  0  0  0  0  0
   14.2345   -3.9601    6.6829 N   0  0  0  0  0  0  0  0  0  0  0  0
   14.7221   -3.0583    5.5490 C   0  0  0  0  0  0  0  0  0  0  0  0
   14.8999   -3.7840    4.1926 C   0  0  1  0  0  0  0  0  0  0  0  0
   15.0700   -5.3255    4.2383 C   0  0  0  0  0  0  0  0  0  0  0  0
   15.2153   -5.9091    2.8263 C   0  0  0  0  0  0  0  0  0  0  0  0
   14.0983   -5.4050    1.8842 C   0  0  1  0  0  0  0  0  0  0  0  0
   12.7057   -6.0670    2.1305 C   0  0  2  0  0  0  0  0  0  0  0  0
   12.7531   -7.5892    2.0317 C   0  0  0  0  0  0  0  0  0  0  0  0
   12.3225   -8.3747    3.1029 C   0  0  0  0  0  0  0  0  0  0  0  0
   12.3958   -9.7629    3.0192 C   0  0  0  0  0  0  0  0  0  0  0  0
   12.8972  -10.3629    1.8676 C   0  0  0  0  0  0  0  0  0  0  0  0
   13.3187   -9.5874    0.7926 C   0  0  0  0  0  0  0  0  0  0  0  0
   13.2445   -8.2014    0.8739 C   0  0  0  0  0  0  0  0  0  0  0  0
   11.6991   -5.5133    1.2256 N   0  0  0  0  0  0  0  0  0  0  0  0
   11.7858   -4.1845    0.7833 C   0  0  0  0  0  0  0  0  0  0  0  0
   10.7712   -3.7187   -0.0475 C   0  0  0  0  0  0  0  0  0  0  0  0
   10.8197   -2.4274   -0.5442 C   0  0  0  0  0  0  0  0  0  0  0  0
   11.8648   -1.5641   -0.1926 C   0  0  0  0  0  0  0  0  0  0  0  0
   11.9169   -0.1315   -0.7463 C   0  0  0  0  0  0  0  0  0  0  0  0
   12.7557   -0.1019   -2.0369 C   0  0  0  0  0  0  0  0  0  0  0  0
   12.5803    0.8318    0.2570 C   0  0  0  0  0  0  0  0  0  0  0  0
   10.4805    0.3432   -1.0380 C   0  0  0  0  0  0  0  0  0  0  0  0
   12.8556   -2.0349    0.6769 C   0  0  0  0  0  0  0  0  0  0  0  0
   12.8619   -3.3505    1.1396 C   0  0  0  0  0  0  0  0  0  0  0  0
   14.0087   -3.8650    1.9951 C   0  0  1  0  0  0  0  0  0  0  0  0
   13.7947   -3.4627    3.3473 O   0  0  0  0  0  0  0  0  0  0  0  0
   14.7984   -5.2560    8.3086 H   0  0  0  0  0  0  0  0  0  0  0  0
   15.9163   -5.2873    6.9030 H   0  0  0  0  0  0  0  0  0  0  0  0
   15.9195   -3.8821    8.0219 H   0  0  0  0  0  0  0  0  0  0  0  0
   13.6697   -4.6769    6.2740 H   0  0  0  0  0  0  0  0  0  0  0  0
   13.9904   -2.2482    5.4135 H   0  0  0  0  0  0  0  0  0  0  0  0
   15.6925   -2.6307    5.8413 H   0  0  0  0  0  0  0  0  0  0  0  0
   15.8134   -3.3783    3.7333 H   0  0  0  0  0  0  0  0  0  0  0  0
   15.9696   -5.5702    4.8222 H   0  0  0  0  0  0  0  0  0  0  0  0
   14.1873   -5.7699    4.7213 H   0  0  0  0  0  0  0  0  0  0  0  0
   16.1908   -5.6102    2.4152 H   0  0  0  0  0  0  0  0  0  0  0  0
   15.1633   -7.0062    2.8865 H   0  0  0  0  0  0  0  0  0  0  0  0
   14.3991   -5.6463    0.8540 H   0  0  0  0  0  0  0  0  0  0  0  0
   12.4117   -5.8164    3.1604 H   0  0  0  0  0  0  0  0  0  0  0  0
   11.9332   -7.9064    3.9949 H   0  0  0  0  0  0  0  0  0  0  0  0
   12.0642  -10.3729    3.8464 H   0  0  0  0  0  0  0  0  0  0  0  0
   12.9595  -11.4395    1.8083 H   0  0  0  0  0  0  0  0  0  0  0  0
   13.7015  -10.0592   -0.1003 H   0  0  0  0  0  0  0  0  0  0  0  0
   13.5674   -7.5954    0.0403 H   0  0  0  0  0  0  0  0  0  0  0  0
   11.7044   -6.0876    0.4070 H   0  0  0  0  0  0  0  0  0  0  0  0
    9.9452   -4.3651   -0.3050 H   0  0  0  0  0  0  0  0  0  0  0  0
   10.0429   -2.0819   -1.2103 H   0  0  0  0  0  0  0  0  0  0  0  0
   12.7899    0.9252   -2.4291 H   0  0  0  0  0  0  0  0  0  0  0  0
   13.7777   -0.4448   -1.8178 H   0  0  0  0  0  0  0  0  0  0  0  0
   12.2991   -0.7653   -2.7861 H   0  0  0  0  0  0  0  0  0  0  0  0
   12.6023    1.8463   -0.1676 H   0  0  0  0  0  0  0  0  0  0  0  0
   12.0041    0.8391    1.1940 H   0  0  0  0  0  0  0  0  0  0  0  0
   13.6082    0.4975    0.4612 H   0  0  0  0  0  0  0  0  0  0  0  0
   10.5062    1.3687   -1.4352 H   0  0  0  0  0  0  0  0  0  0  0  0
   10.0168   -0.3252   -1.7785 H   0  0  0  0  0  0  0  0  0  0  0  0
    9.8925    0.3248   -0.1085 H   0  0  0  0  0  0  0  0  0  0  0  0
   13.6362   -1.3612    0.9981 H   0  0  0  0  0  0  0  0  0  0  0  0
   14.9491   -3.4352    1.6196 H   0  0  0  0  0  0  0  0  0  0  0  0
  1  2  1  0  0  0  0
  2  3  1  0  0  0  0
  3  4  1  0  0  0  0
  4  5  1  0  0  0  0
  4 27  1  0  0  0  0
  5  6  1  0  0  0  0
  6  7  1  0  0  0  0
  7  8  1  0  0  0  0
  7 26  1  0  0  0  0
  8  9  1  0  0  0  0
  8 15  1  0  0  0  0
  9 10  2  0  0  0  0
  9 14  1  0  0  0  0
 10 11  1  0  0  0  0
 11 12  2  0  0  0  0
 12 13  1  0  0  0  0
 13 14  2  0  0  0  0
 15 16  1  0  0  0  0
 16 17  2  0  0  0  0
 16 25  1  0  0  0  0
 17 18  1  0  0  0  0
 18 19  2  0  0  0  0
 19 20  1  0  0  0  0
 19 24  1  0  0  0  0
 20 21  1  0  0  0  0
 20 22  1  0  0  0  0
 20 23  1  0  0  0  0
 24 25  2  0  0  0  0
 25 26  1  0  0  0  0
 26 27  1  0  0  0  0
  1 28  1  0  0  0  0
  1 29  1  0  0  0  0
  1 30  1  0  0  0  0
  2 31  1  0  0  0  0
  3 32  1  0  0  0  0
  3 33  1  0  0  0  0
  4 34  1  0  0  0  0
  5 35  1  0  0  0  0
  5 36  1  0  0  0  0
  6 37  1  0  0  0  0
  6 38  1  0  0  0  0
  7 39  1  0  0  0  0
  8 40  1  0  0  0  0
 10 41  1  0  0  0  0
 11 42  1  0  0  0  0
 12 43  1  0  0  0  0
 13 44  1  0  0  0  0
 14 45  1  0  0  0  0
 15 46  1  0  0  0  0
 17 47  1  0  0  0  0
 18 48  1  0  0  0  0
 21 49  1  0  0  0  0
 21 50  1  0  0  0  0
 21 51  1  0  0  0  0
 22 52  1  0  0  0  0
 22 53  1  0  0  0  0
 22 54  1  0  0  0  0
 23 55  1  0  0  0  0
 23 56  1  0  0  0  0
 23 57  1  0  0  0  0
 24 58  1  0  0  0  0
 26 59  1  0  0  0  0
M  END
> <ID>
CHEMBL1086410

> <IC50[nM]>
4

$$$$
CHEMBL1086410
  -OEChem-05192314313D
 Structure written by MMmdl.
 59 62  0     1  0  0  0  0  0999 V2000
   15.2901   -4.6437    7.5383 C   0  0  0  0  0  0  0  0  0  0  0  0
   14.2345   -3.9601    6.6829 N   0  0  0  0  0  0  0  0  0  0  0  0
   14.7221   -3.0583    5.5490 C   0  0  0  0  0  0  0  0  0  0  0  0
   14.8999   -3.7840    4.1926 C   0  0  1  0  0  0  0  0  0  0  0  0
   15.0700   -5.3255    4.2383 C   0  0  0  0  0  0  0  0  0  0  0  0
   15.2153   -5.9091    2.8263 C   0  0  0  0  0  0  0  0  0  0  0  0
   14.0983   -5.4050    1.8842 C   0  0  1  0  0  0  0  0  0  0  0  0
   12.7057   -6.0670    2.1305 C   0  0  2  0  0  0  0  0  0  0  0  0
   12.7531   -7.5892    2.0317 C   0  0  0  0  0  0  0  0  0  0  0  0
   12.3225   -8.3747    3.1029 C   0  0  0  0  0  0  0  0  0  0  0  0
   12.3958   -9.7629    3.0192 C   0  0  0  0  0  0  0  0  0  0  0  0
   12.8972  -10.3629    1.8676 C   0  0  0  0  0  0  0  0  0  0  0  0
   13.3187   -9.5874    0.7926 C   0  0  0  0  0  0  0  0  0  0  0  0
   13.2445   -8.2014    0.8739 C   0  0  0  0  0  0  0  0  0  0  0  0
   11.6991   -5.5133    1.2256 N   0  0  0  0  0  0  0  0  0  0  0  0
   11.7858   -4.1845    0.7833 C   0  0  0  0  0  0  0  0  0  0  0  0
   10.7712   -3.7187   -0.0475 C   0  0  0  0  0  0  0  0  0  0  0  0
   10.8197   -2.4274   -0.5442 C   0  0  0  0  0  0  0  0  0  0  0  0
   11.8648   -1.5641   -0.1926 C   0  0  0  0  0  0  0  0  0  0  0  0
   11.9169   -0.1315   -0.7463 C   0  0  0  0  0  0  0  0  0  0  0  0
   12.7557   -0.1019   -2.0369 C   0  0  0  0  0  0  0  0  0  0  0  0
   12.5803    0.8318    0.2570 C   0  0  0  0  0  0  0  0  0  0  0  0
   10.4805    0.3432   -1.0380 C   0  0  0  0  0  0  0  0  0  0  0  0
   12.8556   -2.0349    0.6769 C   0  0  0  0  0  0  0  0  0  0  0  0
   12.8619   -3.3505    1.1396 C   0  0  0  0  0  0  0  0  0  0  0  0
   14.0087   -3.8650    1.9951 C   0  0  1  0  0  0  0  0  0  0  0  0
   13.7947   -3.4627    3.3473 O   0  0  0  0  0  0  0  0  0  0  0  0
   14.7984   -5.2560    8.3086 H   0  0  0  0  0  0  0  0  0  0  0  0
   15.9163   -5.2873    6.9030 H   0  0  0  0  0  0  0  0  0  0  0  0
   15.9195   -3.8821    8.0219 H   0  0  0  0  0  0  0  0  0  0  0  0
   13.6697   -4.6769    6.2740 H   0  0  0  0  0  0  0  0  0  0  0  0
   13.9904   -2.2482    5.4135 H   0  0  0  0  0  0  0  0  0  0  0  0
   15.6925   -2.6307    5.8413 H   0  0  0  0  0  0  0  0  0  0  0  0
   15.8134   -3.3783    3.7333 H   0  0  0  0  0  0  0  0  0  0  0  0
   15.9696   -5.5702    4.8222 H   0  0  0  0  0  0  0  0  0  0  0  0
   14.1873   -5.7699    4.7213 H   0  0  0  0  0  0  0  0  0  0  0  0
   16.1908   -5.6102    2.4152 H   0  0  0  0  0  0  0  0  0  0  0  0
   15.1633   -7.0062    2.8865 H   0  0  0  0  0  0  0  0  0  0  0  0
   14.3991   -5.6463    0.8540 H   0  0  0  0  0  0  0  0  0  0  0  0
   12.4117   -5.8164    3.1604 H   0  0  0  0  0  0  0  0  0  0  0  0
   11.9332   -7.9064    3.9949 H   0  0  0  0  0  0  0  0  0  0  0  0
   12.0642  -10.3729    3.8464 H   0  0  0  0  0  0  0  0  0  0  0  0
   12.9595  -11.4395    1.8083 H   0  0  0  0  0  0  0  0  0  0  0  0
   13.7015  -10.0592   -0.1003 H   0  0  0  0  0  0  0  0  0  0  0  0
   13.5674   -7.5954    0.0403 H   0  0  0  0  0  0  0  0  0  0  0  0
    9.9452   -4.3651   -0.3050 H   0  0  0  0  0  0  0  0  0  0  0  0
   10.0429   -2.0819   -1.2103 H   0  0  0  0  0  0  0  0  0  0  0  0
   12.4498   -1.9195   -1.0537 H   0  0  0  0  0  0  0  0  0  0  0  0
   12.7899    0.9252   -2.4291 H   0  0  0  0  0  0  0  0  0  0  0  0
   13.7777   -0.4448   -1.8178 H   0  0  0  0  0  0  0  0  0  0  0  0
   12.2991   -0.7653   -2.7861 H   0  0  0  0  0  0  0  0  0  0  0  0
   12.6023    1.8463   -0.1676 H   0  0  0  0  0  0  0  0  0  0  0  0
   12.0041    0.8391    1.1940 H   0  0  0  0  0  0  0  0  0  0  0  0
   13.6082    0.4975    0.4612 H   0  0  0  0  0  0  0  0  0  0  0  0
   10.5062    1.3687   -1.4352 H   0  0  0  0  0  0  0  0  0  0  0  0
   10.0168   -0.3252   -1.7785 H   0  0  0  0  0  0  0  0  0  0  0  0
    9.8925    0.3248   -0.1085 H   0  0  0  0  0  0  0  0  0  0  0  0
   13.6362   -1.3612    0.9981 H   0  0  0  0  0  0  0  0  0  0  0  0
   14.9491   -3.4352    1.6196 H   0  0  0  0  0  0  0  0  0  0  0  0
  1  2  1  0  0  0  0
  2  3  1  0  0  0  0
  3  4  1  0  0  0  0
  4  5  1  0  0  0  0
  4 27  1  0  0  0  0
  5  6  1  0  0  0  0
  6  7  1  0  0  0  0
  7  8  1  0  0  0  0
  7 26  1  0  0  0  0
  8  9  1  0  0  0  0
  8 15  1  0  0  0  0
  9 10  2  0  0  0  0
  9 14  1  0  0  0  0
 10 11  1  0  0  0  0
 11 12  2  0  0  0  0
 12 13  1  0  0  0  0
 13 14  2  0  0  0  0
 15 16  2  0  0  0  0
 16 17  1  0  0  0  0
 16 25  1  0  0  0  0
 17 18  2  0  0  0  0
 18 19  1  0  0  0  0
 19 20  1  0  0  0  0
 19 24  1  0  0  0  0
 20 21  1  0  0  0  0
 20 22  1  0  0  0  0
 20 23  1  0  0  0  0
 24 25  2  0  0  0  0
 25 26  1  0  0  0  0
 26 27  1  0  0  0  0
  1 28  1  0  0  0  0
  1 29  1  0  0  0  0
  1 30  1  0  0  0  0
  2 31  1  0  0  0  0
  3 32  1  0  0  0  0
  3 33  1  0  0  0  0
  4 34  1  0  0  0  0
  5 35  1  0  0  0  0
  5 36  1  0  0  0  0
  6 37  1  0  0  0  0
  6 38  1  0  0  0  0
  7 39  1  0  0  0  0
  8 40  1  0  0  0  0
 10 41  1  0  0  0  0
 11 42  1  0  0  0  0
 12 43  1  0  0  0  0
 13 44  1  0  0  0  0
 14 45  1  0  0  0  0
 17 46  1  0  0  0  0
 18 47  1  0  0  0  0
 19 48  1  0  0  0  0
 21 49  1  0  0  0  0
 21 50  1  0  0  0  0
 21 51  1  0  0  0  0
 22 52  1  0  0  0  0
 22 53  1  0  0  0  0
 22 54  1  0  0  0  0
 23 55  1  0  0  0  0
 23 56  1  0  0  0  0
 23 57  1  0  0  0  0
 24 58  1  0  0  0  0
 26 59  1  0  0  0  0
M  END
> <ID>
CHEMBL1086410

> <IC50[nM]>
4

$$$$
CHEMBL1086410
  -OEChem-05192314313D
 Structure written by MMmdl.
 59 62  0     1  0  0  0  0  0999 V2000
   15.2901   -4.6437    7.5383 C   0  0  0  0  0  0  0  0  0  0  0  0
   14.2345   -3.9601    6.6829 N   0  0  0  0  0  0  0  0  0  0  0  0
   14.7221   -3.0583    5.5490 C   0  0  0  0  0  0  0  0  0  0  0  0
   14.8999   -3.7840    4.1926 C   0  0  1  0  0  0  0  0  0  0  0  0
   15.0700   -5.3255    4.2383 C   0  0  0  0  0  0  0  0  0  0  0  0
   15.2153   -5.9091    2.8263 C   0  0  0  0  0  0  0  0  0  0  0  0
   14.0983   -5.4050    1.8842 C   0  0  1  0  0  0  0  0  0  0  0  0
   12.7057   -6.0670    2.1305 C   0  0  2  0  0  0  0  0  0  0  0  0
   12.7531   -7.5892    2.0317 C   0  0  0  0  0  0  0  0  0  0  0  0
   12.3225   -8.3747    3.1029 C   0  0  0  0  0  0  0  0  0  0  0  0
   12.3958   -9.7629    3.0192 C   0  0  0  0  0  0  0  0  0  0  0  0
   12.8972  -10.3629    1.8676 C   0  0  0  0  0  0  0  0  0  0  0  0
   13.3187   -9.5874    0.7926 C   0  0  0  0  0  0  0  0  0  0  0  0
   13.2445   -8.2014    0.8739 C   0  0  0  0  0  0  0  0  0  0  0  0
   11.6991   -5.5133    1.2256 N   0  0  0  0  0  0  0  0  0  0  0  0
   11.7858   -4.1845    0.7833 C   0  0  0  0  0  0  0  0  0  0  0  0
   10.7712   -3.7187   -0.0475 C   0  0  0  0  0  0  0  0  0  0  0  0
   10.8197   -2.4274   -0.5442 C   0  0  0  0  0  0  0  0  0  0  0  0
   11.8648   -1.5641   -0.1926 C   0  0  0  0  0  0  0  0  0  0  0  0
   11.9169   -0.1315   -0.7463 C   0  0  0  0  0  0  0  0  0  0  0  0
   12.7557   -0.1019   -2.0369 C   0  0  0  0  0  0  0  0  0  0  0  0
   12.5803    0.8318    0.2570 C   0  0  0  0  0  0  0  0  0  0  0  0
   10.4805    0.3432   -1.0380 C   0  0  0  0  0  0  0  0  0  0  0  0
   12.8556   -2.0349    0.6769 C   0  0  0  0  0  0  0  0  0  0  0  0
   12.8619   -3.3505    1.1396 C   0  0  0  0  0  0  0  0  0  0  0  0
   14.0087   -3.8650    1.9951 C   0  0  1  0  0  0  0  0  0  0  0  0
   13.7947   -3.4627    3.3473 O   0  0  0  0  0  0  0  0  0  0  0  0
   14.7984   -5.2560    8.3086 H   0  0  0  0  0  0  0  0  0  0  0  0
   15.9163   -5.2873    6.9030 H   0  0  0  0  0  0  0  0  0  0  0  0
   15.9195   -3.8821    8.0219 H   0  0  0  0  0  0  0  0  0  0  0  0
   13.6697   -4.6769    6.2740 H   0  0  0  0  0  0  0  0  0  0  0  0
   13.9904   -2.2482    5.4135 H   0  0  0  0  0  0  0  0  0  0  0  0
   15.6925   -2.6307    5.8413 H   0  0  0  0  0  0  0  0  0  0  0  0
   15.8134   -3.3783    3.7333 H   0  0  0  0  0  0  0  0  0  0  0  0
   15.9696   -5.5702    4.8222 H   0  0  0  0  0  0  0  0  0  0  0  0
   14.1873   -5.7699    4.7213 H   0  0  0  0  0  0  0  0  0  0  0  0
   16.1908   -5.6102    2.4152 H   0  0  0  0  0  0  0  0  0  0  0  0
   15.1633   -7.0062    2.8865 H   0  0  0  0  0  0  0  0  0  0  0  0
   14.3991   -5.6463    0.8540 H   0  0  0  0  0  0  0  0  0  0  0  0
   12.4117   -5.8164    3.1604 H   0  0  0  0  0  0  0  0  0  0  0  0
   11.9332   -7.9064    3.9949 H   0  0  0  0  0  0  0  0  0  0  0  0
   12.0642  -10.3729    3.8464 H   0  0  0  0  0  0  0  0  0  0  0  0
   12.9595  -11.4395    1.8083 H   0  0  0  0  0  0  0  0  0  0  0  0
   13.7015  -10.0592   -0.1003 H   0  0  0  0  0  0  0  0  0  0  0  0
   13.5674   -7.5954    0.0403 H   0  0  0  0  0  0  0  0  0  0  0  0
    9.9452   -4.3651   -0.3050 H   0  0  0  0  0  0  0  0  0  0  0  0
   10.0429   -2.0819   -1.2103 H   0  0  0  0  0  0  0  0  0  0  0  0
   12.7899    0.9252   -2.4291 H   0  0  0  0  0  0  0  0  0  0  0  0
   13.7777   -0.4448   -1.8178 H   0  0  0  0  0  0  0  0  0  0  0  0
   12.2991   -0.7653   -2.7861 H   0  0  0  0  0  0  0  0  0  0  0  0
   12.6023    1.8463   -0.1676 H   0  0  0  0  0  0  0  0  0  0  0  0
   12.0041    0.8391    1.1940 H   0  0  0  0  0  0  0  0  0  0  0  0
   13.6082    0.4975    0.4612 H   0  0  0  0  0  0  0  0  0  0  0  0
   10.5062    1.3687   -1.4352 H   0  0  0  0  0  0  0  0  0  0  0  0
   10.0168   -0.3252   -1.7785 H   0  0  0  0  0  0  0  0  0  0  0  0
    9.8925    0.3248   -0.1085 H   0  0  0  0  0  0  0  0  0  0  0  0
   13.6362   -1.3612    0.9981 H   0  0  0  0  0  0  0  0  0  0  0  0
   12.3228   -3.0374    2.0459 H   0  0  0  0  0  0  0  0  0  0  0  0
   14.9491   -3.4352    1.6196 H   0  0  0  0  0  0  0  0  0  0  0  0
  1  2  1  0  0  0  0
  2  3  1  0  0  0  0
  3  4  1  0  0  0  0
  4  5  1  0  0  0  0
  4 27  1  0  0  0  0
  5  6  1  0  0  0  0
  6  7  1  0  0  0  0
  7  8  1  0  0  0  0
  7 26  1  0  0  0  0
  8  9  1  0  0  0  0
  8 15  1  0  0  0  0
  9 10  2  0  0  0  0
  9 14  1  0  0  0  0
 10 11  1  0  0  0  0
 11 12  2  0  0  0  0
 12 13  1  0  0  0  0
 13 14  2  0  0  0  0
 15 16  2  0  0  0  0
 16 17  1  0  0  0  0
 16 25  1  0  0  0  0
 17 18  2  0  0  0  0
 18 19  1  0  0  0  0
 19 20  1  0  0  0  0
 19 24  2  0  0  0  0
 20 21  1  0  0  0  0
 20 22  1  0  0  0  0
 20 23  1  0  0  0  0
 24 25  1  0  0  0  0
 25 26  1  0  0  0  0
 26 27  1  0  0  0  0
  1 28  1  0  0  0  0
  1 29  1  0  0  0  0
  1 30  1  0  0  0  0
  2 31  1  0  0  0  0
  3 32  1  0  0  0  0
  3 33  1  0  0  0  0
  4 34  1  0  0  0  0
  5 35  1  0  0  0  0
  5 36  1  0  0  0  0
  6 37  1  0  0  0  0
  6 38  1  0  0  0  0
  7 39  1  0  0  0  0
  8 40  1  0  0  0  0
 10 41  1  0  0  0  0
 11 42  1  0  0  0  0
 12 43  1  0  0  0  0
 13 44  1  0  0  0  0
 14 45  1  0  0  0  0
 17 46  1  0  0  0  0
 18 47  1  0  0  0  0
 21 48  1  0  0  0  0
 21 49  1  0  0  0  0
 21 50  1  0  0  0  0
 22 51  1  0  0  0  0
 22 52  1  0  0  0  0
 22 53  1  0  0  0  0
 23 54  1  0  0  0  0
 23 55  1  0  0  0  0
 23 56  1  0  0  0  0
 24 57  1  0  0  0  0
 25 58  1  0  0  0  0
 26 59  1  0  0  0  0
M  END
> <ID>
CHEMBL1086410

> <IC50[nM]>
4

$$$$
CHEMBL1086410
  -OEChem-05192314313D
 Structure written by MMmdl.
 59 62  0     1  0  0  0  0  0999 V2000
   15.2901   -4.6437    7.5383 C   0  0  0  0  0  0  0  0  0  0  0  0
   14.2345   -3.9601    6.6829 N   0  0  0  0  0  0  0  0  0  0  0  0
   14.7221   -3.0583    5.5490 C   0  0  0  0  0  0  0  0  0  0  0  0
   14.8999   -3.7840    4.1926 C   0  0  1  0  0  0  0  0  0  0  0  0
   15.0700   -5.3255    4.2383 C   0  0  0  0  0  0  0  0  0  0  0  0
   15.2153   -5.9091    2.8263 C   0  0  0  0  0  0  0  0  0  0  0  0
   14.0983   -5.4050    1.8842 C   0  0  1  0  0  0  0  0  0  0  0  0
   12.7057   -6.0670    2.1305 C   0  0  2  0  0  0  0  0  0  0  0  0
   12.7531   -7.5892    2.0317 C   0  0  0  0  0  0  0  0  0  0  0  0
   12.3225   -8.3747    3.1029 C   0  0  0  0  0  0  0  0  0  0  0  0
   12.3958   -9.7629    3.0192 C   0  0  0  0  0  0  0  0  0  0  0  0
   12.8972  -10.3629    1.8676 C   0  0  0  0  0  0  0  0  0  0  0  0
   13.3187   -9.5874    0.7926 C   0  0  0  0  0  0  0  0  0  0  0  0
   13.2445   -8.2014    0.8739 C   0  0  0  0  0  0  0  0  0  0  0  0
   11.6991   -5.5133    1.2256 N   0  0  0  0  0  0  0  0  0  0  0  0
   11.7858   -4.1845    0.7833 C   0  0  0  0  0  0  0  0  0  0  0  0
   10.7712   -3.7187   -0.0475 C   0  0  0  0  0  0  0  0  0  0  0  0
   10.8197   -2.4274   -0.5442 C   0  0  0  0  0  0  0  0  0  0  0  0
   11.8648   -1.5641   -0.1926 C   0  0  0  0  0  0  0  0  0  0  0  0
   11.9169   -0.1315   -0.7463 C   0  0  0  0  0  0  0  0  0  0  0  0
   12.7557   -0.1019   -2.0369 C   0  0  0  0  0  0  0  0  0  0  0  0
   12.5803    0.8318    0.2570 C   0  0  0  0  0  0  0  0  0  0  0  0
   10.4805    0.3432   -1.0380 C   0  0  0  0  0  0  0  0  0  0  0  0
   12.8556   -2.0349    0.6769 C   0  0  0  0  0  0  0  0  0  0  0  0
   12.8619   -3.3505    1.1396 C   0  0  0  0  0  0  0  0  0  0  0  0
   14.0087   -3.8650    1.9951 C   0  0  1  0  0  0  0  0  0  0  0  0
   13.7947   -3.4627    3.3473 O   0  0  0  0  0  0  0  0  0  0  0  0
   14.7984   -5.2560    8.3086 H   0  0  0  0  0  0  0  0  0  0  0  0
   15.9163   -5.2873    6.9030 H   0  0  0  0  0  0  0  0  0  0  0  0
   15.9195   -3.8821    8.0219 H   0  0  0  0  0  0  0  0  0  0  0  0
   13.6697   -4.6769    6.2740 H   0  0  0  0  0  0  0  0  0  0  0  0
   13.9904   -2.2482    5.4135 H   0  0  0  0  0  0  0  0  0  0  0  0
   15.6925   -2.6307    5.8413 H   0  0  0  0  0  0  0  0  0  0  0  0
   15.8134   -3.3783    3.7333 H   0  0  0  0  0  0  0  0  0  0  0  0
   15.9696   -5.5702    4.8222 H   0  0  0  0  0  0  0  0  0  0  0  0
   14.1873   -5.7699    4.7213 H   0  0  0  0  0  0  0  0  0  0  0  0
   16.1908   -5.6102    2.4152 H   0  0  0  0  0  0  0  0  0  0  0  0
   15.1633   -7.0062    2.8865 H   0  0  0  0  0  0  0  0  0  0  0  0
   14.3991   -5.6463    0.8540 H   0  0  0  0  0  0  0  0  0  0  0  0
   12.4117   -5.8164    3.1604 H   0  0  0  0  0  0  0  0  0  0  0  0
   11.9332   -7.9064    3.9949 H   0  0  0  0  0  0  0  0  0  0  0  0
   12.0642  -10.3729    3.8464 H   0  0  0  0  0  0  0  0  0  0  0  0
   12.9595  -11.4395    1.8083 H   0  0  0  0  0  0  0  0  0  0  0  0
   13.7015  -10.0592   -0.1003 H   0  0  0  0  0  0  0  0  0  0  0  0
   13.5674   -7.5954    0.0403 H   0  0  0  0  0  0  0  0  0  0  0  0
   10.7387   -4.3920   -0.9168 H   0  0  0  0  0  0  0  0  0  0  0  0
    9.8323   -3.8057    0.5189 H   0  0  0  0  0  0  0  0  0  0  0  0
   10.0429   -2.0819   -1.2103 H   0  0  0  0  0  0  0  0  0  0  0  0
   12.7899    0.9252   -2.4291 H   0  0  0  0  0  0  0  0  0  0  0  0
   13.7777   -0.4448   -1.8178 H   0  0  0  0  0  0  0  0  0  0  0  0
   12.2991   -0.7653   -2.7861 H   0  0  0  0  0  0  0  0  0  0  0  0
   12.6023    1.8463   -0.1676 H   0  0  0  0  0  0  0  0  0  0  0  0
   12.0041    0.8391    1.1940 H   0  0  0  0  0  0  0  0  0  0  0  0
   13.6082    0.4975    0.4612 H   0  0  0  0  0  0  0  0  0  0  0  0
   10.5062    1.3687   -1.4352 H   0  0  0  0  0  0  0  0  0  0  0  0
   10.0168   -0.3252   -1.7785 H   0  0  0  0  0  0  0  0  0  0  0  0
    9.8925    0.3248   -0.1085 H   0  0  0  0  0  0  0  0  0  0  0  0
   13.6362   -1.3612    0.9981 H   0  0  0  0  0  0  0  0  0  0  0  0
   14.9491   -3.4352    1.6196 H   0  0  0  0  0  0  0  0  0  0  0  0
  1  2  1  0  0  0  0
  2  3  1  0  0  0  0
  3  4  1  0  0  0  0
  4  5  1  0  0  0  0
  4 27  1  0  0  0  0
  5  6  1  0  0  0  0
  6  7  1  0  0  0  0
  7  8  1  0  0  0  0
  7 26  1  0  0  0  0
  8  9  1  0  0  0  0
  8 15  1  0  0  0  0
  9 10  2  0  0  0  0
  9 14  1  0  0  0  0
 10 11  1  0  0  0  0
 11 12  2  0  0  0  0
 12 13  1  0  0  0  0
 13 14  2  0  0  0  0
 15 16  2  0  0  0  0
 16 17  1  0  0  0  0
 16 25  1  0  0  0  0
 17 18  1  0  0  0  0
 18 19  2  0  0  0  0
 19 20  1  0  0  0  0
 19 24  1  0  0  0  0
 20 21  1  0  0  0  0
 20 22  1  0  0  0  0
 20 23  1  0  0  0  0
 24 25  2  0  0  0  0
 25 26  1  0  0  0  0
 26 27  1  0  0  0  0
  1 28  1  0  0  0  0
  1 29  1  0  0  0  0
  1 30  1  0  0  0  0
  2 31  1  0  0  0  0
  3 32  1  0  0  0  0
  3 33  1  0  0  0  0
  4 34  1  0  0  0  0
  5 35  1  0  0  0  0
  5 36  1  0  0  0  0
  6 37  1  0  0  0  0
  6 38  1  0  0  0  0
  7 39  1  0  0  0  0
  8 40  1  0  0  0  0
 10 41  1  0  0  0  0
 11 42  1  0  0  0  0
 12 43  1  0  0  0  0
 13 44  1  0  0  0  0
 14 45  1  0  0  0  0
 17 46  1  0  0  0  0
 17 47  1  0  0  0  0
 18 48  1  0  0  0  0
 21 49  1  0  0  0  0
 21 50  1  0  0  0  0
 21 51  1  0  0  0  0
 22 52  1  0  0  0  0
 22 53  1  0  0  0  0
 22 54  1  0  0  0  0
 23 55  1  0  0  0  0
 23 56  1  0  0  0  0
 23 57  1  0  0  0  0
 24 58  1  0  0  0  0
 26 59  1  0  0  0  0
M  END
> <ID>
CHEMBL1086410

> <IC50[nM]>
4

$$$$
