56
  -OEChem-05192314313D
 Structure written by MMmdl.
 53 57  0     0  0  0  0  0  0999 V2000
   93.2875   49.7899  267.6817 C   0  0  0  0  0  0  0  0  0  0  0  0
   92.5639   47.3419  266.4806 C   0  0  0  0  0  0  0  0  0  0  0  0
   91.6077   48.3343  266.6701 C   0  0  0  0  0  0  0  0  0  0  0  0
   91.9668   49.5310  267.2780 C   0  0  0  0  0  0  0  0  0  0  0  0
   93.8923   47.5378  266.9074 C   0  0  0  0  0  0  0  0  0  0  0  0
   94.2733   48.7754  267.5078 C   0  0  0  0  0  0  0  0  0  0  0  0
   95.5604   48.9644  267.9352 N   0  0  0  0  0  0  0  0  0  0  0  0
   96.4505   47.9552  267.7478 C   0  0  0  0  0  0  0  0  0  0  0  0
   96.0626   46.7471  267.1815 C   0  0  0  0  0  0  0  0  0  0  0  0
   94.7984   46.5302  266.7568 N   0  0  0  0  0  0  0  0  0  0  0  0
   93.5872   51.0916  268.3371 C   0  0  0  0  0  0  0  0  0  0  0  0
   94.5607   51.9338  267.7811 C   0  0  0  0  0  0  0  0  0  0  0  0
   94.8501   53.1823  268.3498 C   0  0  0  0  0  0  0  0  0  0  0  0
   92.8941   51.4456  269.4876 C   0  0  0  0  0  0  0  0  0  0  0  0
   90.2744   48.1264  266.3145 N   0  0  0  0  0  0  0  0  0  0  0  0
   89.7159   47.3451  265.2886 C   0  0  0  0  0  0  0  0  0  0  0  0
   90.4198   47.1284  264.0960 C   0  0  0  0  0  0  0  0  0  0  0  0
   89.9137   46.4353  263.0457 N   0  0  0  0  0  0  0  0  0  0  0  0
   88.6627   45.9369  263.1677 C   0  0  0  0  0  0  0  0  0  0  0  0
   87.8911   46.0926  264.3161 C   0  0  0  0  0  0  0  0  0  0  0  0
   88.4236   46.8007  265.4015 C   0  0  0  0  0  0  0  0  0  0  0  0
   87.4795   46.8934  266.9237 S   0  0  0  0  0  0  0  0  0  0  0  0
   86.1396   46.3756  266.6690 O   0  0  0  0  0  0  0  0  0  0  0  0
   87.6540   48.2479  267.4799 O   0  0  0  0  0  0  0  0  0  0  0  0
   88.3811   45.6759  268.0440 C   0  0  0  0  0  0  0  0  0  0  0  0
   93.1885   52.6594  270.0906 C   0  0  0  0  0  0  0  0  0  0  0  0
   94.1456   53.5742  269.5213 C   0  0  0  0  0  0  0  0  0  0  0  0
   94.1354   54.7290  270.3575 C   0  0  0  0  0  0  0  0  0  0  0  0
   93.2772   54.4881  271.4048 C   0  0  0  0  0  0  0  0  0  0  0  0
   92.7219   53.2385  271.2473 N   0  0  0  0  0  0  0  0  0  0  0  0
   91.7905   52.6217  272.1984 C   0  0  0  0  0  0  0  0  0  0  0  0
   95.8952   54.0681  267.6802 C   0  0  0  0  0  0  0  0  0  0  0  0
   92.2859   46.4142  266.0026 H   0  0  0  0  0  0  0  0  0  0  0  0
   91.2098   50.2830  267.4449 H   0  0  0  0  0  0  0  0  0  0  0  0
   97.4795   48.0947  268.0447 H   0  0  0  0  0  0  0  0  0  0  0  0
   96.7930   45.9583  267.0777 H   0  0  0  0  0  0  0  0  0  0  0  0
   95.0970   51.6152  266.8994 H   0  0  0  0  0  0  0  0  0  0  0  0
   92.1429   50.7904  269.9033 H   0  0  0  0  0  0  0  0  0  0  0  0
   89.6088   48.6119  266.8813 H   0  0  0  0  0  0  0  0  0  0  0  0
   91.4168   47.5343  264.0089 H   0  0  0  0  0  0  0  0  0  0  0  0
   88.2422   45.3924  262.3351 H   0  0  0  0  0  0  0  0  0  0  0  0
   86.8970   45.6738  264.3695 H   0  0  0  0  0  0  0  0  0  0  0  0
   87.8858   45.6442  269.0257 H   0  0  0  0  0  0  0  0  0  0  0  0
   88.3590   44.6743  267.5898 H   0  0  0  0  0  0  0  0  0  0  0  0
   89.4252   45.9982  268.1704 H   0  0  0  0  0  0  0  0  0  0  0  0
   94.7022   55.6341  270.1967 H   0  0  0  0  0  0  0  0  0  0  0  0
   93.0723   55.1684  272.2181 H   0  0  0  0  0  0  0  0  0  0  0  0
   91.5973   53.3184  273.0274 H   0  0  0  0  0  0  0  0  0  0  0  0
   90.8448   52.3893  271.6869 H   0  0  0  0  0  0  0  0  0  0  0  0
   92.2309   51.6946  272.5939 H   0  0  0  0  0  0  0  0  0  0  0  0
   95.4067   54.7136  266.9355 H   0  0  0  0  0  0  0  0  0  0  0  0
   96.3875   54.6927  268.4402 H   0  0  0  0  0  0  0  0  0  0  0  0
   96.6458   53.4369  267.1821 H   0  0  0  0  0  0  0  0  0  0  0  0
  1  4  2  0  0  0  0
  1  6  1  0  0  0  0
  1 11  1  0  0  0  0
  2  3  2  0  0  0  0
  2  5  1  0  0  0  0
  3  4  1  0  0  0  0
  3 15  1  0  0  0  0
  5  6  2  0  0  0  0
  5 10  1  0  0  0  0
  6  7  1  0  0  0  0
  7  8  2  0  0  0  0
  8  9  1  0  0  0  0
  9 10  2  0  0  0  0
 11 12  2  0  0  0  0
 11 14  1  0  0  0  0
 12 13  1  0  0  0  0
 13 27  2  0  0  0  0
 13 32  1  0  0  0  0
 14 26  2  0  0  0  0
 15 16  1  0  0  0  0
 16 17  2  0  0  0  0
 16 21  1  0  0  0  0
 17 18  1  0  0  0  0
 18 19  2  0  0  0  0
 19 20  1  0  0  0  0
 20 21  2  0  0  0  0
 21 22  1  0  0  0  0
 22 23  2  0  0  0  0
 22 24  2  0  0  0  0
 22 25  1  0  0  0  0
 26 27  1  0  0  0  0
 26 30  1  0  0  0  0
 27 28  1  0  0  0  0
 28 29  2  0  0  0  0
 29 30  1  0  0  0  0
 30 31  1  0  0  0  0
  2 33  1  0  0  0  0
  4 34  1  0  0  0  0
  8 35  1  0  0  0  0
  9 36  1  0  0  0  0
 12 37  1  0  0  0  0
 14 38  1  0  0  0  0
 15 39  1  0  0  0  0
 17 40  1  0  0  0  0
 19 41  1  0  0  0  0
 20 42  1  0  0  0  0
 25 43  1  0  0  0  0
 25 44  1  0  0  0  0
 25 45  1  0  0  0  0
 28 46  1  0  0  0  0
 29 47  1  0  0  0  0
 31 48  1  0  0  0  0
 31 49  1  0  0  0  0
 31 50  1  0  0  0  0
 32 51  1  0  0  0  0
 32 52  1  0  0  0  0
 32 53  1  0  0  0  0
M  END
> <ID>
56

> <IC50[uM]>
0.018

$$$$
56
  -OEChem-05192314313D
 Structure written by MMmdl.
 53 57  0     0  0  0  0  0  0999 V2000
   93.2875   49.7899  267.6817 C   0  0  0  0  0  0  0  0  0  0  0  0
   92.5639   47.3419  266.4806 C   0  0  0  0  0  0  0  0  0  0  0  0
   91.6077   48.3343  266.6701 C   0  0  0  0  0  0  0  0  0  0  0  0
   91.9668   49.5310  267.2780 C   0  0  0  0  0  0  0  0  0  0  0  0
   93.8923   47.5378  266.9074 C   0  0  0  0  0  0  0  0  0  0  0  0
   94.2733   48.7754  267.5078 C   0  0  0  0  0  0  0  0  0  0  0  0
   95.5604   48.9644  267.9352 N   0  0  0  0  0  0  0  0  0  0  0  0
   96.4505   47.9552  267.7478 C   0  0  0  0  0  0  0  0  0  0  0  0
   96.0626   46.7471  267.1815 C   0  0  0  0  0  0  0  0  0  0  0  0
   94.7984   46.5302  266.7568 N   0  0  0  0  0  0  0  0  0  0  0  0
   93.5872   51.0916  268.3371 C   0  0  0  0  0  0  0  0  0  0  0  0
   94.5607   51.9338  267.7811 C   0  0  0  0  0  0  0  0  0  0  0  0
   94.8501   53.1823  268.3498 C   0  0  0  0  0  0  0  0  0  0  0  0
   92.8941   51.4456  269.4876 C   0  0  0  0  0  0  0  0  0  0  0  0
   90.2744   48.1264  266.3145 N   0  0  0  0  0  0  0  0  0  0  0  0
   89.7159   47.3451  265.2886 C   0  0  0  0  0  0  0  0  0  0  0  0
   90.4198   47.1284  264.0960 C   0  0  0  0  0  0  0  0  0  0  0  0
   89.9137   46.4353  263.0457 N   0  0  0  0  0  0  0  0  0  0  0  0
   88.6627   45.9369  263.1677 C   0  0  0  0  0  0  0  0  0  0  0  0
   87.8911   46.0926  264.3161 C   0  0  0  0  0  0  0  0  0  0  0  0
   88.4236   46.8007  265.4015 C   0  0  0  0  0  0  0  0  0  0  0  0
   87.4795   46.8934  266.9237 S   0  0  0  0  0  0  0  0  0  0  0  0
   86.1396   46.3756  266.6690 O   0  0  0  0  0  0  0  0  0  0  0  0
   87.6540   48.2479  267.4799 O   0  0  0  0  0  0  0  0  0  0  0  0
   88.3811   45.6759  268.0440 C   0  0  0  0  0  0  0  0  0  0  0  0
   93.1885   52.6594  270.0906 C   0  0  0  0  0  0  0  0  0  0  0  0
   94.1456   53.5742  269.5213 C   0  0  0  0  0  0  0  0  0  0  0  0
   94.1354   54.7290  270.3575 C   0  0  0  0  0  0  0  0  0  0  0  0
   93.2772   54.4881  271.4048 C   0  0  0  0  0  0  0  0  0  0  0  0
   92.7219   53.2385  271.2473 N   0  0  0  0  0  0  0  0  0  0  0  0
   91.7905   52.6217  272.1984 C   0  0  0  0  0  0  0  0  0  0  0  0
   95.8952   54.0681  267.6802 C   0  0  0  0  0  0  0  0  0  0  0  0
   92.2859   46.4142  266.0026 H   0  0  0  0  0  0  0  0  0  0  0  0
   91.2098   50.2830  267.4449 H   0  0  0  0  0  0  0  0  0  0  0  0
   97.4795   48.0947  268.0447 H   0  0  0  0  0  0  0  0  0  0  0  0
   96.7930   45.9583  267.0777 H   0  0  0  0  0  0  0  0  0  0  0  0
   94.5355   45.6578  266.3448 H   0  0  0  0  0  0  0  0  0  0  0  0
   95.0970   51.6152  266.8994 H   0  0  0  0  0  0  0  0  0  0  0  0
   92.1429   50.7904  269.9033 H   0  0  0  0  0  0  0  0  0  0  0  0
   91.4168   47.5343  264.0089 H   0  0  0  0  0  0  0  0  0  0  0  0
   88.2422   45.3924  262.3351 H   0  0  0  0  0  0  0  0  0  0  0  0
   86.8970   45.6738  264.3695 H   0  0  0  0  0  0  0  0  0  0  0  0
   87.8858   45.6442  269.0257 H   0  0  0  0  0  0  0  0  0  0  0  0
   88.3590   44.6743  267.5898 H   0  0  0  0  0  0  0  0  0  0  0  0
   89.4252   45.9982  268.1704 H   0  0  0  0  0  0  0  0  0  0  0  0
   94.7022   55.6341  270.1967 H   0  0  0  0  0  0  0  0  0  0  0  0
   93.0723   55.1684  272.2181 H   0  0  0  0  0  0  0  0  0  0  0  0
   91.5973   53.3184  273.0274 H   0  0  0  0  0  0  0  0  0  0  0  0
   90.8448   52.3893  271.6869 H   0  0  0  0  0  0  0  0  0  0  0  0
   92.2309   51.6946  272.5939 H   0  0  0  0  0  0  0  0  0  0  0  0
   95.4067   54.7136  266.9355 H   0  0  0  0  0  0  0  0  0  0  0  0
   96.3875   54.6927  268.4402 H   0  0  0  0  0  0  0  0  0  0  0  0
   96.6458   53.4369  267.1821 H   0  0  0  0  0  0  0  0  0  0  0  0
  1  4  2  0  0  0  0
  1  6  1  0  0  0  0
  1 11  1  0  0  0  0
  2  3  1  0  0  0  0
  2  5  2  0  0  0  0
  3  4  1  0  0  0  0
  3 15  2  3  0  0  0
  5  6  1  0  0  0  0
  5 10  1  0  0  0  0
  6  7  2  0  0  0  0
  7  8  1  0  0  0  0
  8  9  2  0  0  0  0
  9 10  1  0  0  0  0
 11 12  2  0  0  0  0
 11 14  1  0  0  0  0
 12 13  1  0  0  0  0
 13 27  2  0  0  0  0
 13 32  1  0  0  0  0
 14 26  2  0  0  0  0
 15 16  1  0  0  0  0
 16 17  2  0  0  0  0
 16 21  1  0  0  0  0
 17 18  1  0  0  0  0
 18 19  2  0  0  0  0
 19 20  1  0  0  0  0
 20 21  2  0  0  0  0
 21 22  1  0  0  0  0
 22 23  2  0  0  0  0
 22 24  2  0  0  0  0
 22 25  1  0  0  0  0
 26 27  1  0  0  0  0
 26 30  1  0  0  0  0
 27 28  1  0  0  0  0
 28 29  2  0  0  0  0
 29 30  1  0  0  0  0
 30 31  1  0  0  0  0
  2 33  1  0  0  0  0
  4 34  1  0  0  0  0
  8 35  1  0  0  0  0
  9 36  1  0  0  0  0
 10 37  1  0  0  0  0
 12 38  1  0  0  0  0
 14 39  1  0  0  0  0
 17 40  1  0  0  0  0
 19 41  1  0  0  0  0
 20 42  1  0  0  0  0
 25 43  1  0  0  0  0
 25 44  1  0  0  0  0
 25 45  1  0  0  0  0
 28 46  1  0  0  0  0
 29 47  1  0  0  0  0
 31 48  1  0  0  0  0
 31 49  1  0  0  0  0
 31 50  1  0  0  0  0
 32 51  1  0  0  0  0
 32 52  1  0  0  0  0
 32 53  1  0  0  0  0
M  END
> <ID>
56

> <IC50[uM]>
0.018

$$$$
56
  -OEChem-05192314313D
 Structure written by MMmdl.
 53 57  0     0  0  0  0  0  0999 V2000
   93.2875   49.7899  267.6817 C   0  0  0  0  0  0  0  0  0  0  0  0
   92.5639   47.3419  266.4806 C   0  0  0  0  0  0  0  0  0  0  0  0
   91.6077   48.3343  266.6701 C   0  0  0  0  0  0  0  0  0  0  0  0
   91.9668   49.5310  267.2780 C   0  0  0  0  0  0  0  0  0  0  0  0
   93.8923   47.5378  266.9074 C   0  0  0  0  0  0  0  0  0  0  0  0
   94.2733   48.7754  267.5078 C   0  0  0  0  0  0  0  0  0  0  0  0
   95.5604   48.9644  267.9352 N   0  0  0  0  0  0  0  0  0  0  0  0
   96.4505   47.9552  267.7478 C   0  0  0  0  0  0  0  0  0  0  0  0
   96.0626   46.7471  267.1815 C   0  0  0  0  0  0  0  0  0  0  0  0
   94.7984   46.5302  266.7568 N   0  0  0  0  0  0  0  0  0  0  0  0
   93.5872   51.0916  268.3371 C   0  0  0  0  0  0  0  0  0  0  0  0
   94.5607   51.9338  267.7811 C   0  0  0  0  0  0  0  0  0  0  0  0
   94.8501   53.1823  268.3498 C   0  0  0  0  0  0  0  0  0  0  0  0
   92.8941   51.4456  269.4876 C   0  0  0  0  0  0  0  0  0  0  0  0
   90.2744   48.1264  266.3145 N   0  0  0  0  0  0  0  0  0  0  0  0
   89.7159   47.3451  265.2886 C   0  0  0  0  0  0  0  0  0  0  0  0
   90.4198   47.1284  264.0960 C   0  0  0  0  0  0  0  0  0  0  0  0
   89.9137   46.4353  263.0457 N   0  0  0  0  0  0  0  0  0  0  0  0
   88.6627   45.9369  263.1677 C   0  0  0  0  0  0  0  0  0  0  0  0
   87.8911   46.0926  264.3161 C   0  0  0  0  0  0  0  0  0  0  0  0
   88.4236   46.8007  265.4015 C   0  0  0  0  0  0  0  0  0  0  0  0
   87.4795   46.8934  266.9237 S   0  0  0  0  0  0  0  0  0  0  0  0
   86.1396   46.3756  266.6690 O   0  0  0  0  0  0  0  0  0  0  0  0
   87.6540   48.2479  267.4799 O   0  0  0  0  0  0  0  0  0  0  0  0
   88.3811   45.6759  268.0440 C   0  0  0  0  0  0  0  0  0  0  0  0
   93.1885   52.6594  270.0906 C   0  0  0  0  0  0  0  0  0  0  0  0
   94.1456   53.5742  269.5213 C   0  0  0  0  0  0  0  0  0  0  0  0
   94.1354   54.7290  270.3575 C   0  0  0  0  0  0  0  0  0  0  0  0
   93.2772   54.4881  271.4048 C   0  0  0  0  0  0  0  0  0  0  0  0
   92.7219   53.2385  271.2473 N   0  0  0  0  0  0  0  0  0  0  0  0
   91.7905   52.6217  272.1984 C   0  0  0  0  0  0  0  0  0  0  0  0
   95.8952   54.0681  267.6802 C   0  0  0  0  0  0  0  0  0  0  0  0
   92.1949   46.4454  267.0003 H   0  0  0  0  0  0  0  0  0  0  0  0
   92.6060   47.1473  265.3987 H   0  0  0  0  0  0  0  0  0  0  0  0
   91.2098   50.2830  267.4449 H   0  0  0  0  0  0  0  0  0  0  0  0
   97.4795   48.0947  268.0447 H   0  0  0  0  0  0  0  0  0  0  0  0
   96.7930   45.9583  267.0777 H   0  0  0  0  0  0  0  0  0  0  0  0
   95.0970   51.6152  266.8994 H   0  0  0  0  0  0  0  0  0  0  0  0
   92.1429   50.7904  269.9033 H   0  0  0  0  0  0  0  0  0  0  0  0
   91.4168   47.5343  264.0089 H   0  0  0  0  0  0  0  0  0  0  0  0
   88.2422   45.3924  262.3351 H   0  0  0  0  0  0  0  0  0  0  0  0
   86.8970   45.6738  264.3695 H   0  0  0  0  0  0  0  0  0  0  0  0
   87.8858   45.6442  269.0257 H   0  0  0  0  0  0  0  0  0  0  0  0
   88.3590   44.6743  267.5898 H   0  0  0  0  0  0  0  0  0  0  0  0
   89.4252   45.9982  268.1704 H   0  0  0  0  0  0  0  0  0  0  0  0
   94.7022   55.6341  270.1967 H   0  0  0  0  0  0  0  0  0  0  0  0
   93.0723   55.1684  272.2181 H   0  0  0  0  0  0  0  0  0  0  0  0
   91.5973   53.3184  273.0274 H   0  0  0  0  0  0  0  0  0  0  0  0
   90.8448   52.3893  271.6869 H   0  0  0  0  0  0  0  0  0  0  0  0
   92.2309   51.6946  272.5939 H   0  0  0  0  0  0  0  0  0  0  0  0
   95.4067   54.7136  266.9355 H   0  0  0  0  0  0  0  0  0  0  0  0
   96.3875   54.6927  268.4402 H   0  0  0  0  0  0  0  0  0  0  0  0
   96.6458   53.4369  267.1821 H   0  0  0  0  0  0  0  0  0  0  0  0
  1  4  2  0  0  0  0
  1  6  1  0  0  0  0
  1 11  1  0  0  0  0
  2  3  1  0  0  0  0
  2  5  1  0  0  0  0
  3  4  1  0  0  0  0
  3 15  2  3  0  0  0
  5  6  2  0  0  0  0
  5 10  1  0  0  0  0
  6  7  1  0  0  0  0
  7  8  2  0  0  0  0
  8  9  1  0  0  0  0
  9 10  2  0  0  0  0
 11 12  2  0  0  0  0
 11 14  1  0  0  0  0
 12 13  1  0  0  0  0
 13 27  2  0  0  0  0
 13 32  1  0  0  0  0
 14 26  2  0  0  0  0
 15 16  1  0  0  0  0
 16 17  2  0  0  0  0
 16 21  1  0  0  0  0
 17 18  1  0  0  0  0
 18 19  2  0  0  0  0
 19 20  1  0  0  0  0
 20 21  2  0  0  0  0
 21 22  1  0  0  0  0
 22 23  2  0  0  0  0
 22 24  2  0  0  0  0
 22 25  1  0  0  0  0
 26 27  1  0  0  0  0
 26 30  1  0  0  0  0
 27 28  1  0  0  0  0
 28 29  2  0  0  0  0
 29 30  1  0  0  0  0
 30 31  1  0  0  0  0
  2 33  1  0  0  0  0
  2 34  1  0  0  0  0
  4 35  1  0  0  0  0
  8 36  1  0  0  0  0
  9 37  1  0  0  0  0
 12 38  1  0  0  0  0
 14 39  1  0  0  0  0
 17 40  1  0  0  0  0
 19 41  1  0  0  0  0
 20 42  1  0  0  0  0
 25 43  1  0  0  0  0
 25 44  1  0  0  0  0
 25 45  1  0  0  0  0
 28 46  1  0  0  0  0
 29 47  1  0  0  0  0
 31 48  1  0  0  0  0
 31 49  1  0  0  0  0
 31 50  1  0  0  0  0
 32 51  1  0  0  0  0
 32 52  1  0  0  0  0
 32 53  1  0  0  0  0
M  END
> <ID>
56

> <IC50[uM]>
0.018

$$$$
56
  -OEChem-05192314313D
 Structure written by MMmdl.
 53 57  0     0  0  0  0  0  0999 V2000
   93.2875   49.7899  267.6817 C   0  0  0  0  0  0  0  0  0  0  0  0
   92.5639   47.3419  266.4806 C   0  0  0  0  0  0  0  0  0  0  0  0
   91.6077   48.3343  266.6701 C   0  0  0  0  0  0  0  0  0  0  0  0
   91.9668   49.5310  267.2780 C   0  0  0  0  0  0  0  0  0  0  0  0
   93.8923   47.5378  266.9074 C   0  0  0  0  0  0  0  0  0  0  0  0
   94.2733   48.7754  267.5078 C   0  0  0  0  0  0  0  0  0  0  0  0
   95.5604   48.9644  267.9352 N   0  0  0  0  0  0  0  0  0  0  0  0
   96.4505   47.9552  267.7478 C   0  0  0  0  0  0  0  0  0  0  0  0
   96.0626   46.7471  267.1815 C   0  0  0  0  0  0  0  0  0  0  0  0
   94.7984   46.5302  266.7568 N   0  0  0  0  0  0  0  0  0  0  0  0
   93.5872   51.0916  268.3371 C   0  0  0  0  0  0  0  0  0  0  0  0
   94.5607   51.9338  267.7811 C   0  0  0  0  0  0  0  0  0  0  0  0
   94.8501   53.1823  268.3498 C   0  0  0  0  0  0  0  0  0  0  0  0
   92.8941   51.4456  269.4876 C   0  0  0  0  0  0  0  0  0  0  0  0
   90.2744   48.1264  266.3145 N   0  0  0  0  0  0  0  0  0  0  0  0
   89.7159   47.3451  265.2886 C   0  0  0  0  0  0  0  0  0  0  0  0
   90.4198   47.1284  264.0960 C   0  0  0  0  0  0  0  0  0  0  0  0
   89.9137   46.4353  263.0457 N   0  0  0  0  0  0  0  0  0  0  0  0
   88.6627   45.9369  263.1677 C   0  0  0  0  0  0  0  0  0  0  0  0
   87.8911   46.0926  264.3161 C   0  0  0  0  0  0  0  0  0  0  0  0
   88.4236   46.8007  265.4015 C   0  0  0  0  0  0  0  0  0  0  0  0
   87.4795   46.8934  266.9237 S   0  0  0  0  0  0  0  0  0  0  0  0
   86.1396   46.3756  266.6690 O   0  0  0  0  0  0  0  0  0  0  0  0
   87.6540   48.2479  267.4799 O   0  0  0  0  0  0  0  0  0  0  0  0
   88.3811   45.6759  268.0440 C   0  0  0  0  0  0  0  0  0  0  0  0
   93.1885   52.6594  270.0906 C   0  0  0  0  0  0  0  0  0  0  0  0
   94.1456   53.5742  269.5213 C   0  0  0  0  0  0  0  0  0  0  0  0
   94.1354   54.7290  270.3575 C   0  0  0  0  0  0  0  0  0  0  0  0
   93.2772   54.4881  271.4048 C   0  0  0  0  0  0  0  0  0  0  0  0
   92.7219   53.2385  271.2473 N   0  0  0  0  0  0  0  0  0  0  0  0
   91.7905   52.6217  272.1984 C   0  0  0  0  0  0  0  0  0  0  0  0
   95.8952   54.0681  267.6802 C   0  0  0  0  0  0  0  0  0  0  0  0
   92.2859   46.4142  266.0026 H   0  0  0  0  0  0  0  0  0  0  0  0
   91.3453   49.6170  268.1815 H   0  0  0  0  0  0  0  0  0  0  0  0
   91.6980   50.3294  266.5707 H   0  0  0  0  0  0  0  0  0  0  0  0
   97.4795   48.0947  268.0447 H   0  0  0  0  0  0  0  0  0  0  0  0
   96.7930   45.9583  267.0777 H   0  0  0  0  0  0  0  0  0  0  0  0
   95.0970   51.6152  266.8994 H   0  0  0  0  0  0  0  0  0  0  0  0
   92.1429   50.7904  269.9033 H   0  0  0  0  0  0  0  0  0  0  0  0
   91.4168   47.5343  264.0089 H   0  0  0  0  0  0  0  0  0  0  0  0
   88.2422   45.3924  262.3351 H   0  0  0  0  0  0  0  0  0  0  0  0
   86.8970   45.6738  264.3695 H   0  0  0  0  0  0  0  0  0  0  0  0
   87.8858   45.6442  269.0257 H   0  0  0  0  0  0  0  0  0  0  0  0
   88.3590   44.6743  267.5898 H   0  0  0  0  0  0  0  0  0  0  0  0
   89.4252   45.9982  268.1704 H   0  0  0  0  0  0  0  0  0  0  0  0
   94.7022   55.6341  270.1967 H   0  0  0  0  0  0  0  0  0  0  0  0
   93.0723   55.1684  272.2181 H   0  0  0  0  0  0  0  0  0  0  0  0
   91.5973   53.3184  273.0274 H   0  0  0  0  0  0  0  0  0  0  0  0
   90.8448   52.3893  271.6869 H   0  0  0  0  0  0  0  0  0  0  0  0
   92.2309   51.6946  272.5939 H   0  0  0  0  0  0  0  0  0  0  0  0
   95.4067   54.7136  266.9355 H   0  0  0  0  0  0  0  0  0  0  0  0
   96.3875   54.6927  268.4402 H   0  0  0  0  0  0  0  0  0  0  0  0
   96.6458   53.4369  267.1821 H   0  0  0  0  0  0  0  0  0  0  0  0
  1  4  1  0  0  0  0
  1  6  2  0  0  0  0
  1 11  1  0  0  0  0
  2  3  1  0  0  0  0
  2  5  2  0  0  0  0
  3  4  1  0  0  0  0
  3 15  2  3  0  0  0
  5  6  1  0  0  0  0
  5 10  1  0  0  0  0
  6  7  1  0  0  0  0
  7  8  2  0  0  0  0
  8  9  1  0  0  0  0
  9 10  2  0  0  0  0
 11 12  2  0  0  0  0
 11 14  1  0  0  0  0
 12 13  1  0  0  0  0
 13 27  2  0  0  0  0
 13 32  1  0  0  0  0
 14 26  2  0  0  0  0
 15 16  1  0  0  0  0
 16 17  2  0  0  0  0
 16 21  1  0  0  0  0
 17 18  1  0  0  0  0
 18 19  2  0  0  0  0
 19 20  1  0  0  0  0
 20 21  2  0  0  0  0
 21 22  1  0  0  0  0
 22 23  2  0  0  0  0
 22 24  2  0  0  0  0
 22 25  1  0  0  0  0
 26 27  1  0  0  0  0
 26 30  1  0  0  0  0
 27 28  1  0  0  0  0
 28 29  2  0  0  0  0
 29 30  1  0  0  0  0
 30 31  1  0  0  0  0
  2 33  1  0  0  0  0
  4 34  1  0  0  0  0
  4 35  1  0  0  0  0
  8 36  1  0  0  0  0
  9 37  1  0  0  0  0
 12 38  1  0  0  0  0
 14 39  1  0  0  0  0
 17 40  1  0  0  0  0
 19 41  1  0  0  0  0
 20 42  1  0  0  0  0
 25 43  1  0  0  0  0
 25 44  1  0  0  0  0
 25 45  1  0  0  0  0
 28 46  1  0  0  0  0
 29 47  1  0  0  0  0
 31 48  1  0  0  0  0
 31 49  1  0  0  0  0
 31 50  1  0  0  0  0
 32 51  1  0  0  0  0
 32 52  1  0  0  0  0
 32 53  1  0  0  0  0
M  END
> <ID>
56

> <IC50[uM]>
0.018

$$$$
56
  -OEChem-05192314313D
 Structure written by MMmdl.
 53 57  0     1  0  0  0  0  0999 V2000
   93.2875   49.7899  267.6817 C   0  0  0  0  0  0  0  0  0  0  0  0
   92.5639   47.3419  266.4806 C   0  0  0  0  0  0  0  0  0  0  0  0
   91.6077   48.3343  266.6701 C   0  0  0  0  0  0  0  0  0  0  0  0
   91.9668   49.5310  267.2780 C   0  0  0  0  0  0  0  0  0  0  0  0
   93.8923   47.5378  266.9074 C   0  0  0  0  0  0  0  0  0  0  0  0
   94.2733   48.7754  267.5078 C   0  0  0  0  0  0  0  0  0  0  0  0
   95.5604   48.9644  267.9352 N   0  0  0  0  0  0  0  0  0  0  0  0
   96.4505   47.9552  267.7478 C   0  0  0  0  0  0  0  0  0  0  0  0
   96.0626   46.7471  267.1815 C   0  0  0  0  0  0  0  0  0  0  0  0
   94.7984   46.5302  266.7568 N   0  0  0  0  0  0  0  0  0  0  0  0
   93.5872   51.0916  268.3371 C   0  0  0  0  0  0  0  0  0  0  0  0
   94.5607   51.9338  267.7811 C   0  0  0  0  0  0  0  0  0  0  0  0
   94.8501   53.1823  268.3498 C   0  0  0  0  0  0  0  0  0  0  0  0
   92.8941   51.4456  269.4876 C   0  0  0  0  0  0  0  0  0  0  0  0
   90.2744   48.1264  266.3145 N   0  0  0  0  0  0  0  0  0  0  0  0
   89.7159   47.3451  265.2886 C   0  0  0  0  0  0  0  0  0  0  0  0
   90.4198   47.1284  264.0960 C   0  0  0  0  0  0  0  0  0  0  0  0
   89.9137   46.4353  263.0457 N   0  0  0  0  0  0  0  0  0  0  0  0
   88.6627   45.9369  263.1677 C   0  0  0  0  0  0  0  0  0  0  0  0
   87.8911   46.0926  264.3161 C   0  0  0  0  0  0  0  0  0  0  0  0
   88.4236   46.8007  265.4015 C   0  0  3  0  0  0  0  0  0  0  0  0
   87.4795   46.8934  266.9237 S   0  0  0  0  0  0  0  0  0  0  0  0
   86.1396   46.3756  266.6690 O   0  0  0  0  0  0  0  0  0  0  0  0
   87.6540   48.2479  267.4799 O   0  0  0  0  0  0  0  0  0  0  0  0
   88.3811   45.6759  268.0440 C   0  0  0  0  0  0  0  0  0  0  0  0
   93.1885   52.6594  270.0906 C   0  0  0  0  0  0  0  0  0  0  0  0
   94.1456   53.5742  269.5213 C   0  0  0  0  0  0  0  0  0  0  0  0
   94.1354   54.7290  270.3575 C   0  0  0  0  0  0  0  0  0  0  0  0
   93.2772   54.4881  271.4048 C   0  0  0  0  0  0  0  0  0  0  0  0
   92.7219   53.2385  271.2473 N   0  0  0  0  0  0  0  0  0  0  0  0
   91.7905   52.6217  272.1984 C   0  0  0  0  0  0  0  0  0  0  0  0
   95.8952   54.0681  267.6802 C   0  0  0  0  0  0  0  0  0  0  0  0
   92.2859   46.4142  266.0026 H   0  0  0  0  0  0  0  0  0  0  0  0
   91.2098   50.2830  267.4449 H   0  0  0  0  0  0  0  0  0  0  0  0
   97.4795   48.0947  268.0447 H   0  0  0  0  0  0  0  0  0  0  0  0
   96.7930   45.9583  267.0777 H   0  0  0  0  0  0  0  0  0  0  0  0
   95.0970   51.6152  266.8994 H   0  0  0  0  0  0  0  0  0  0  0  0
   92.1429   50.7904  269.9033 H   0  0  0  0  0  0  0  0  0  0  0  0
   91.4168   47.5343  264.0089 H   0  0  0  0  0  0  0  0  0  0  0  0
   88.2422   45.3924  262.3351 H   0  0  0  0  0  0  0  0  0  0  0  0
   86.8970   45.6738  264.3695 H   0  0  0  0  0  0  0  0  0  0  0  0
   87.9720   47.7373  265.0426 H   0  0  0  0  0  0  0  0  0  0  0  0
   87.8858   45.6442  269.0257 H   0  0  0  0  0  0  0  0  0  0  0  0
   88.3590   44.6743  267.5898 H   0  0  0  0  0  0  0  0  0  0  0  0
   89.4252   45.9982  268.1704 H   0  0  0  0  0  0  0  0  0  0  0  0
   94.7022   55.6341  270.1967 H   0  0  0  0  0  0  0  0  0  0  0  0
   93.0723   55.1684  272.2181 H   0  0  0  0  0  0  0  0  0  0  0  0
   91.5973   53.3184  273.0274 H   0  0  0  0  0  0  0  0  0  0  0  0
   90.8448   52.3893  271.6869 H   0  0  0  0  0  0  0  0  0  0  0  0
   92.2309   51.6946  272.5939 H   0  0  0  0  0  0  0  0  0  0  0  0
   95.4067   54.7136  266.9355 H   0  0  0  0  0  0  0  0  0  0  0  0
   96.3875   54.6927  268.4402 H   0  0  0  0  0  0  0  0  0  0  0  0
   96.6458   53.4369  267.1821 H   0  0  0  0  0  0  0  0  0  0  0  0
  1  4  2  0  0  0  0
  1  6  1  0  0  0  0
  1 11  1  0  0  0  0
  2  3  2  0  0  0  0
  2  5  1  0  0  0  0
  3  4  1  0  0  0  0
  3 15  1  0  0  0  0
  5  6  2  0  0  0  0
  5 10  1  0  0  0  0
  6  7  1  0  0  0  0
  7  8  2  0  0  0  0
  8  9  1  0  0  0  0
  9 10  2  0  0  0  0
 11 12  2  0  0  0  0
 11 14  1  0  0  0  0
 12 13  1  0  0  0  0
 13 27  2  0  0  0  0
 13 32  1  0  0  0  0
 14 26  2  0  0  0  0
 15 16  2  0  0  0  0
 16 17  1  0  0  0  0
 16 21  1  0  0  0  0
 17 18  2  0  0  0  0
 18 19  1  0  0  0  0
 19 20  2  0  0  0  0
 20 21  1  0  0  0  0
 21 22  1  0  0  0  0
 22 23  2  0  0  0  0
 22 24  2  0  0  0  0
 22 25  1  0  0  0  0
 26 27  1  0  0  0  0
 26 30  1  0  0  0  0
 27 28  1  0  0  0  0
 28 29  2  0  0  0  0
 29 30  1  0  0  0  0
 30 31  1  0  0  0  0
  2 33  1  0  0  0  0
  4 34  1  0  0  0  0
  8 35  1  0  0  0  0
  9 36  1  0  0  0  0
 12 37  1  0  0  0  0
 14 38  1  0  0  0  0
 17 39  1  0  0  0  0
 19 40  1  0  0  0  0
 20 41  1  0  0  0  0
 21 42  1  0  0  0  0
 25 43  1  0  0  0  0
 25 44  1  0  0  0  0
 25 45  1  0  0  0  0
 28 46  1  0  0  0  0
 29 47  1  0  0  0  0
 31 48  1  0  0  0  0
 31 49  1  0  0  0  0
 31 50  1  0  0  0  0
 32 51  1  0  0  0  0
 32 52  1  0  0  0  0
 32 53  1  0  0  0  0
M  END
> <ID>
56

> <IC50[uM]>
0.018

$$$$
56
  -OEChem-05192314313D
 Structure written by MMmdl.
 53 57  0     0  0  0  0  0  0999 V2000
   93.2875   49.7899  267.6817 C   0  0  0  0  0  0  0  0  0  0  0  0
   92.5639   47.3419  266.4806 C   0  0  0  0  0  0  0  0  0  0  0  0
   91.6077   48.3343  266.6701 C   0  0  0  0  0  0  0  0  0  0  0  0
   91.9668   49.5310  267.2780 C   0  0  0  0  0  0  0  0  0  0  0  0
   93.8923   47.5378  266.9074 C   0  0  0  0  0  0  0  0  0  0  0  0
   94.2733   48.7754  267.5078 C   0  0  0  0  0  0  0  0  0  0  0  0
   95.5604   48.9644  267.9352 N   0  0  0  0  0  0  0  0  0  0  0  0
   96.4505   47.9552  267.7478 C   0  0  0  0  0  0  0  0  0  0  0  0
   96.0626   46.7471  267.1815 C   0  0  0  0  0  0  0  0  0  0  0  0
   94.7984   46.5302  266.7568 N   0  0  0  0  0  0  0  0  0  0  0  0
   93.5872   51.0916  268.3371 C   0  0  0  0  0  0  0  0  0  0  0  0
   94.5607   51.9338  267.7811 C   0  0  0  0  0  0  0  0  0  0  0  0
   94.8501   53.1823  268.3498 C   0  0  0  0  0  0  0  0  0  0  0  0
   92.8941   51.4456  269.4876 C   0  0  0  0  0  0  0  0  0  0  0  0
   90.2744   48.1264  266.3145 N   0  0  0  0  0  0  0  0  0  0  0  0
   89.7159   47.3451  265.2886 C   0  0  0  0  0  0  0  0  0  0  0  0
   90.4198   47.1284  264.0960 C   0  0  0  0  0  0  0  0  0  0  0  0
   89.9137   46.4353  263.0457 N   0  0  0  0  0  0  0  0  0  0  0  0
   88.6627   45.9369  263.1677 C   0  0  0  0  0  0  0  0  0  0  0  0
   87.8911   46.0926  264.3161 C   0  0  0  0  0  0  0  0  0  0  0  0
   88.4236   46.8007  265.4015 C   0  0  0  0  0  0  0  0  0  0  0  0
   87.4795   46.8934  266.9237 S   0  0  0  0  0  0  0  0  0  0  0  0
   86.1396   46.3756  266.6690 O   0  0  0  0  0  0  0  0  0  0  0  0
   87.6540   48.2479  267.4799 O   0  0  0  0  0  0  0  0  0  0  0  0
   88.3811   45.6759  268.0440 C   0  0  0  0  0  0  0  0  0  0  0  0
   93.1885   52.6594  270.0906 C   0  0  0  0  0  0  0  0  0  0  0  0
   94.1456   53.5742  269.5213 C   0  0  0  0  0  0  0  0  0  0  0  0
   94.1354   54.7290  270.3575 C   0  0  0  0  0  0  0  0  0  0  0  0
   93.2772   54.4881  271.4048 C   0  0  0  0  0  0  0  0  0  0  0  0
   92.7219   53.2385  271.2473 N   0  0  0  0  0  0  0  0  0  0  0  0
   91.7905   52.6217  272.1984 C   0  0  0  0  0  0  0  0  0  0  0  0
   95.8952   54.0681  267.6802 C   0  0  0  0  0  0  0  0  0  0  0  0
   92.2859   46.4142  266.0026 H   0  0  0  0  0  0  0  0  0  0  0  0
   91.2098   50.2830  267.4449 H   0  0  0  0  0  0  0  0  0  0  0  0
   97.4795   48.0947  268.0447 H   0  0  0  0  0  0  0  0  0  0  0  0
   96.7930   45.9583  267.0777 H   0  0  0  0  0  0  0  0  0  0  0  0
   95.0970   51.6152  266.8994 H   0  0  0  0  0  0  0  0  0  0  0  0
   92.1429   50.7904  269.9033 H   0  0  0  0  0  0  0  0  0  0  0  0
   91.4168   47.5343  264.0089 H   0  0  0  0  0  0  0  0  0  0  0  0
   88.0787   46.3812  262.3482 H   0  0  0  0  0  0  0  0  0  0  0  0
   88.7522   44.8522  263.0080 H   0  0  0  0  0  0  0  0  0  0  0  0
   86.8970   45.6738  264.3695 H   0  0  0  0  0  0  0  0  0  0  0  0
   87.8858   45.6442  269.0257 H   0  0  0  0  0  0  0  0  0  0  0  0
   88.3590   44.6743  267.5898 H   0  0  0  0  0  0  0  0  0  0  0  0
   89.4252   45.9982  268.1704 H   0  0  0  0  0  0  0  0  0  0  0  0
   94.7022   55.6341  270.1967 H   0  0  0  0  0  0  0  0  0  0  0  0
   93.0723   55.1684  272.2181 H   0  0  0  0  0  0  0  0  0  0  0  0
   91.5973   53.3184  273.0274 H   0  0  0  0  0  0  0  0  0  0  0  0
   90.8448   52.3893  271.6869 H   0  0  0  0  0  0  0  0  0  0  0  0
   92.2309   51.6946  272.5939 H   0  0  0  0  0  0  0  0  0  0  0  0
   95.4067   54.7136  266.9355 H   0  0  0  0  0  0  0  0  0  0  0  0
   96.3875   54.6927  268.4402 H   0  0  0  0  0  0  0  0  0  0  0  0
   96.6458   53.4369  267.1821 H   0  0  0  0  0  0  0  0  0  0  0  0
  1  4  2  0  0  0  0
  1  6  1  0  0  0  0
  1 11  1  0  0  0  0
  2  3  2  0  0  0  0
  2  5  1  0  0  0  0
  3  4  1  0  0  0  0
  3 15  1  0  0  0  0
  5  6  2  0  0  0  0
  5 10  1  0  0  0  0
  6  7  1  0  0  0  0
  7  8  2  0  0  0  0
  8  9  1  0  0  0  0
  9 10  2  0  0  0  0
 11 12  2  0  0  0  0
 11 14  1  0  0  0  0
 12 13  1  0  0  0  0
 13 27  2  0  0  0  0
 13 32  1  0  0  0  0
 14 26  2  0  0  0  0
 15 16  2  0  0  0  0
 16 17  1  0  0  0  0
 16 21  1  0  0  0  0
 17 18  2  0  0  0  0
 18 19  1  0  0  0  0
 19 20  1  0  0  0  0
 20 21  2  0  0  0  0
 21 22  1  0  0  0  0
 22 23  2  0  0  0  0
 22 24  2  0  0  0  0
 22 25  1  0  0  0  0
 26 27  1  0  0  0  0
 26 30  1  0  0  0  0
 27 28  1  0  0  0  0
 28 29  2  0  0  0  0
 29 30  1  0  0  0  0
 30 31  1  0  0  0  0
  2 33  1  0  0  0  0
  4 34  1  0  0  0  0
  8 35  1  0  0  0  0
  9 36  1  0  0  0  0
 12 37  1  0  0  0  0
 14 38  1  0  0  0  0
 17 39  1  0  0  0  0
 19 40  1  0  0  0  0
 19 41  1  0  0  0  0
 20 42  1  0  0  0  0
 25 43  1  0  0  0  0
 25 44  1  0  0  0  0
 25 45  1  0  0  0  0
 28 46  1  0  0  0  0
 29 47  1  0  0  0  0
 31 48  1  0  0  0  0
 31 49  1  0  0  0  0
 31 50  1  0  0  0  0
 32 51  1  0  0  0  0
 32 52  1  0  0  0  0
 32 53  1  0  0  0  0
M  END
> <ID>
56

> <IC50[uM]>
0.018

$$$$
56
  -OEChem-05192314313D
 Structure written by MMmdl.
 53 57  0     0  0  0  0  0  0999 V2000
   93.2875   49.7899  267.6817 C   0  0  0  0  0  0  0  0  0  0  0  0
   92.5639   47.3419  266.4806 C   0  0  0  0  0  0  0  0  0  0  0  0
   91.6077   48.3343  266.6701 C   0  0  0  0  0  0  0  0  0  0  0  0
   91.9668   49.5310  267.2780 C   0  0  0  0  0  0  0  0  0  0  0  0
   93.8923   47.5378  266.9074 C   0  0  0  0  0  0  0  0  0  0  0  0
   94.2733   48.7754  267.5078 C   0  0  0  0  0  0  0  0  0  0  0  0
   95.5604   48.9644  267.9352 N   0  0  0  0  0  0  0  0  0  0  0  0
   96.4505   47.9552  267.7478 C   0  0  0  0  0  0  0  0  0  0  0  0
   96.0626   46.7471  267.1815 C   0  0  0  0  0  0  0  0  0  0  0  0
   94.7984   46.5302  266.7568 N   0  0  0  0  0  0  0  0  0  0  0  0
   93.5872   51.0916  268.3371 C   0  0  0  0  0  0  0  0  0  0  0  0
   94.5607   51.9338  267.7811 C   0  0  0  0  0  0  0  0  0  0  0  0
   94.8501   53.1823  268.3498 C   0  0  0  0  0  0  0  0  0  0  0  0
   92.8941   51.4456  269.4876 C   0  0  0  0  0  0  0  0  0  0  0  0
   90.2744   48.1264  266.3145 N   0  0  0  0  0  0  0  0  0  0  0  0
   89.7159   47.3451  265.2886 C   0  0  0  0  0  0  0  0  0  0  0  0
   90.4198   47.1284  264.0960 C   0  0  0  0  0  0  0  0  0  0  0  0
   89.9137   46.4353  263.0457 N   0  0  0  0  0  0  0  0  0  0  0  0
   88.6627   45.9369  263.1677 C   0  0  0  0  0  0  0  0  0  0  0  0
   87.8911   46.0926  264.3161 C   0  0  0  0  0  0  0  0  0  0  0  0
   88.4236   46.8007  265.4015 C   0  0  0  0  0  0  0  0  0  0  0  0
   87.4795   46.8934  266.9237 S   0  0  0  0  0  0  0  0  0  0  0  0
   86.1396   46.3756  266.6690 O   0  0  0  0  0  0  0  0  0  0  0  0
   87.6540   48.2479  267.4799 O   0  0  0  0  0  0  0  0  0  0  0  0
   88.3811   45.6759  268.0440 C   0  0  0  0  0  0  0  0  0  0  0  0
   93.1885   52.6594  270.0906 C   0  0  0  0  0  0  0  0  0  0  0  0
   94.1456   53.5742  269.5213 C   0  0  0  0  0  0  0  0  0  0  0  0
   94.1354   54.7290  270.3575 C   0  0  0  0  0  0  0  0  0  0  0  0
   93.2772   54.4881  271.4048 C   0  0  0  0  0  0  0  0  0  0  0  0
   92.7219   53.2385  271.2473 N   0  0  0  0  0  0  0  0  0  0  0  0
   91.7905   52.6217  272.1984 C   0  0  0  0  0  0  0  0  0  0  0  0
   95.8952   54.0681  267.6802 C   0  0  0  0  0  0  0  0  0  0  0  0
   92.2859   46.4142  266.0026 H   0  0  0  0  0  0  0  0  0  0  0  0
   91.2098   50.2830  267.4449 H   0  0  0  0  0  0  0  0  0  0  0  0
   97.4795   48.0947  268.0447 H   0  0  0  0  0  0  0  0  0  0  0  0
   96.7930   45.9583  267.0777 H   0  0  0  0  0  0  0  0  0  0  0  0
   95.0970   51.6152  266.8994 H   0  0  0  0  0  0  0  0  0  0  0  0
   92.1429   50.7904  269.9033 H   0  0  0  0  0  0  0  0  0  0  0  0
   90.6671   48.1270  263.7067 H   0  0  0  0  0  0  0  0  0  0  0  0
   91.3450   46.6072  264.3829 H   0  0  0  0  0  0  0  0  0  0  0  0
   88.2422   45.3924  262.3351 H   0  0  0  0  0  0  0  0  0  0  0  0
   86.8970   45.6738  264.3695 H   0  0  0  0  0  0  0  0  0  0  0  0
   87.8858   45.6442  269.0257 H   0  0  0  0  0  0  0  0  0  0  0  0
   88.3590   44.6743  267.5898 H   0  0  0  0  0  0  0  0  0  0  0  0
   89.4252   45.9982  268.1704 H   0  0  0  0  0  0  0  0  0  0  0  0
   94.7022   55.6341  270.1967 H   0  0  0  0  0  0  0  0  0  0  0  0
   93.0723   55.1684  272.2181 H   0  0  0  0  0  0  0  0  0  0  0  0
   91.5973   53.3184  273.0274 H   0  0  0  0  0  0  0  0  0  0  0  0
   90.8448   52.3893  271.6869 H   0  0  0  0  0  0  0  0  0  0  0  0
   92.2309   51.6946  272.5939 H   0  0  0  0  0  0  0  0  0  0  0  0
   95.4067   54.7136  266.9355 H   0  0  0  0  0  0  0  0  0  0  0  0
   96.3875   54.6927  268.4402 H   0  0  0  0  0  0  0  0  0  0  0  0
   96.6458   53.4369  267.1821 H   0  0  0  0  0  0  0  0  0  0  0  0
  1  4  2  0  0  0  0
  1  6  1  0  0  0  0
  1 11  1  0  0  0  0
  2  3  2  0  0  0  0
  2  5  1  0  0  0  0
  3  4  1  0  0  0  0
  3 15  1  0  0  0  0
  5  6  2  0  0  0  0
  5 10  1  0  0  0  0
  6  7  1  0  0  0  0
  7  8  2  0  0  0  0
  8  9  1  0  0  0  0
  9 10  2  0  0  0  0
 11 12  2  0  0  0  0
 11 14  1  0  0  0  0
 12 13  1  0  0  0  0
 13 27  2  0  0  0  0
 13 32  1  0  0  0  0
 14 26  2  0  0  0  0
 15 16  2  0  0  0  0
 16 17  1  0  0  0  0
 16 21  1  0  0  0  0
 17 18  1  0  0  0  0
 18 19  2  0  0  0  0
 19 20  1  0  0  0  0
 20 21  2  0  0  0  0
 21 22  1  0  0  0  0
 22 23  2  0  0  0  0
 22 24  2  0  0  0  0
 22 25  1  0  0  0  0
 26 27  1  0  0  0  0
 26 30  1  0  0  0  0
 27 28  1  0  0  0  0
 28 29  2  0  0  0  0
 29 30  1  0  0  0  0
 30 31  1  0  0  0  0
  2 33  1  0  0  0  0
  4 34  1  0  0  0  0
  8 35  1  0  0  0  0
  9 36  1  0  0  0  0
 12 37  1  0  0  0  0
 14 38  1  0  0  0  0
 17 39  1  0  0  0  0
 17 40  1  0  0  0  0
 19 41  1  0  0  0  0
 20 42  1  0  0  0  0
 25 43  1  0  0  0  0
 25 44  1  0  0  0  0
 25 45  1  0  0  0  0
 28 46  1  0  0  0  0
 29 47  1  0  0  0  0
 31 48  1  0  0  0  0
 31 49  1  0  0  0  0
 31 50  1  0  0  0  0
 32 51  1  0  0  0  0
 32 52  1  0  0  0  0
 32 53  1  0  0  0  0
M  END
> <ID>
56

> <IC50[uM]>
0.018

$$$$
56
  -OEChem-05192314313D
 Structure written by MMmdl.
 53 57  0     1  0  0  0  0  0999 V2000
   93.2875   49.7899  267.6817 C   0  0  0  0  0  0  0  0  0  0  0  0
   92.5639   47.3419  266.4806 C   0  0  0  0  0  0  0  0  0  0  0  0
   91.6077   48.3343  266.6701 C   0  0  0  0  0  0  0  0  0  0  0  0
   91.9668   49.5310  267.2780 C   0  0  0  0  0  0  0  0  0  0  0  0
   93.8923   47.5378  266.9074 C   0  0  0  0  0  0  0  0  0  0  0  0
   94.2733   48.7754  267.5078 C   0  0  3  0  0  0  0  0  0  0  0  0
   95.5604   48.9644  267.9352 N   0  0  0  0  0  0  0  0  0  0  0  0
   96.4505   47.9552  267.7478 C   0  0  0  0  0  0  0  0  0  0  0  0
   96.0626   46.7471  267.1815 C   0  0  0  0  0  0  0  0  0  0  0  0
   94.7984   46.5302  266.7568 N   0  0  0  0  0  0  0  0  0  0  0  0
   93.5872   51.0916  268.3371 C   0  0  0  0  0  0  0  0  0  0  0  0
   94.5607   51.9338  267.7811 C   0  0  0  0  0  0  0  0  0  0  0  0
   94.8501   53.1823  268.3498 C   0  0  0  0  0  0  0  0  0  0  0  0
   92.8941   51.4456  269.4876 C   0  0  0  0  0  0  0  0  0  0  0  0
   90.2744   48.1264  266.3145 N   0  0  0  0  0  0  0  0  0  0  0  0
   89.7159   47.3451  265.2886 C   0  0  0  0  0  0  0  0  0  0  0  0
   90.4198   47.1284  264.0960 C   0  0  0  0  0  0  0  0  0  0  0  0
   89.9137   46.4353  263.0457 N   0  0  0  0  0  0  0  0  0  0  0  0
   88.6627   45.9369  263.1677 C   0  0  0  0  0  0  0  0  0  0  0  0
   87.8911   46.0926  264.3161 C   0  0  0  0  0  0  0  0  0  0  0  0
   88.4236   46.8007  265.4015 C   0  0  0  0  0  0  0  0  0  0  0  0
   87.4795   46.8934  266.9237 S   0  0  0  0  0  0  0  0  0  0  0  0
   86.1396   46.3756  266.6690 O   0  0  0  0  0  0  0  0  0  0  0  0
   87.6540   48.2479  267.4799 O   0  0  0  0  0  0  0  0  0  0  0  0
   88.3811   45.6759  268.0440 C   0  0  0  0  0  0  0  0  0  0  0  0
   93.1885   52.6594  270.0906 C   0  0  0  0  0  0  0  0  0  0  0  0
   94.1456   53.5742  269.5213 C   0  0  0  0  0  0  0  0  0  0  0  0
   94.1354   54.7290  270.3575 C   0  0  0  0  0  0  0  0  0  0  0  0
   93.2772   54.4881  271.4048 C   0  0  0  0  0  0  0  0  0  0  0  0
   92.7219   53.2385  271.2473 N   0  0  0  0  0  0  0  0  0  0  0  0
   91.7905   52.6217  272.1984 C   0  0  0  0  0  0  0  0  0  0  0  0
   95.8952   54.0681  267.6802 C   0  0  0  0  0  0  0  0  0  0  0  0
   92.2859   46.4142  266.0026 H   0  0  0  0  0  0  0  0  0  0  0  0
   91.2098   50.2830  267.4449 H   0  0  0  0  0  0  0  0  0  0  0  0
   94.5321   49.1845  266.5201 H   0  0  0  0  0  0  0  0  0  0  0  0
   97.4795   48.0947  268.0447 H   0  0  0  0  0  0  0  0  0  0  0  0
   96.7930   45.9583  267.0777 H   0  0  0  0  0  0  0  0  0  0  0  0
   95.0970   51.6152  266.8994 H   0  0  0  0  0  0  0  0  0  0  0  0
   92.1429   50.7904  269.9033 H   0  0  0  0  0  0  0  0  0  0  0  0
   91.4168   47.5343  264.0089 H   0  0  0  0  0  0  0  0  0  0  0  0
   88.2422   45.3924  262.3351 H   0  0  0  0  0  0  0  0  0  0  0  0
   86.8970   45.6738  264.3695 H   0  0  0  0  0  0  0  0  0  0  0  0
   87.8858   45.6442  269.0257 H   0  0  0  0  0  0  0  0  0  0  0  0
   88.3590   44.6743  267.5898 H   0  0  0  0  0  0  0  0  0  0  0  0
   89.4252   45.9982  268.1704 H   0  0  0  0  0  0  0  0  0  0  0  0
   94.7022   55.6341  270.1967 H   0  0  0  0  0  0  0  0  0  0  0  0
   93.0723   55.1684  272.2181 H   0  0  0  0  0  0  0  0  0  0  0  0
   91.5973   53.3184  273.0274 H   0  0  0  0  0  0  0  0  0  0  0  0
   90.8448   52.3893  271.6869 H   0  0  0  0  0  0  0  0  0  0  0  0
   92.2309   51.6946  272.5939 H   0  0  0  0  0  0  0  0  0  0  0  0
   95.4067   54.7136  266.9355 H   0  0  0  0  0  0  0  0  0  0  0  0
   96.3875   54.6927  268.4402 H   0  0  0  0  0  0  0  0  0  0  0  0
   96.6458   53.4369  267.1821 H   0  0  0  0  0  0  0  0  0  0  0  0
  1  4  2  0  0  0  0
  1  6  1  0  0  0  0
  1 11  1  0  0  0  0
  2  3  1  0  0  0  0
  2  5  2  0  0  0  0
  3  4  1  0  0  0  0
  3 15  2  3  0  0  0
  5  6  1  0  0  0  0
  5 10  1  0  0  0  0
  6  7  1  0  0  0  0
  7  8  2  0  0  0  0
  8  9  1  0  0  0  0
  9 10  2  0  0  0  0
 11 12  2  0  0  0  0
 11 14  1  0  0  0  0
 12 13  1  0  0  0  0
 13 27  2  0  0  0  0
 13 32  1  0  0  0  0
 14 26  2  0  0  0  0
 15 16  1  0  0  0  0
 16 17  2  0  0  0  0
 16 21  1  0  0  0  0
 17 18  1  0  0  0  0
 18 19  2  0  0  0  0
 19 20  1  0  0  0  0
 20 21  2  0  0  0  0
 21 22  1  0  0  0  0
 22 23  2  0  0  0  0
 22 24  2  0  0  0  0
 22 25  1  0  0  0  0
 26 27  1  0  0  0  0
 26 30  1  0  0  0  0
 27 28  1  0  0  0  0
 28 29  2  0  0  0  0
 29 30  1  0  0  0  0
 30 31  1  0  0  0  0
  2 33  1  0  0  0  0
  4 34  1  0  0  0  0
  6 35  1  0  0  0  0
  8 36  1  0  0  0  0
  9 37  1  0  0  0  0
 12 38  1  0  0  0  0
 14 39  1  0  0  0  0
 17 40  1  0  0  0  0
 19 41  1  0  0  0  0
 20 42  1  0  0  0  0
 25 43  1  0  0  0  0
 25 44  1  0  0  0  0
 25 45  1  0  0  0  0
 28 46  1  0  0  0  0
 29 47  1  0  0  0  0
 31 48  1  0  0  0  0
 31 49  1  0  0  0  0
 31 50  1  0  0  0  0
 32 51  1  0  0  0  0
 32 52  1  0  0  0  0
 32 53  1  0  0  0  0
M  END
> <ID>
56

> <IC50[uM]>
0.018

$$$$
56
  -OEChem-05192314313D
 Structure written by MMmdl.
 53 57  0     0  0  0  0  0  0999 V2000
   93.2875   49.7899  267.6817 C   0  0  0  0  0  0  0  0  0  0  0  0
   92.5639   47.3419  266.4806 C   0  0  0  0  0  0  0  0  0  0  0  0
   91.6077   48.3343  266.6701 C   0  0  0  0  0  0  0  0  0  0  0  0
   91.9668   49.5310  267.2780 C   0  0  0  0  0  0  0  0  0  0  0  0
   93.8923   47.5378  266.9074 C   0  0  0  0  0  0  0  0  0  0  0  0
   94.2733   48.7754  267.5078 C   0  0  0  0  0  0  0  0  0  0  0  0
   95.5604   48.9644  267.9352 N   0  0  0  0  0  0  0  0  0  0  0  0
   96.4505   47.9552  267.7478 C   0  0  0  0  0  0  0  0  0  0  0  0
   96.0626   46.7471  267.1815 C   0  0  0  0  0  0  0  0  0  0  0  0
   94.7984   46.5302  266.7568 N   0  0  0  0  0  0  0  0  0  0  0  0
   93.5872   51.0916  268.3371 C   0  0  0  0  0  0  0  0  0  0  0  0
   94.5607   51.9338  267.7811 C   0  0  0  0  0  0  0  0  0  0  0  0
   94.8501   53.1823  268.3498 C   0  0  0  0  0  0  0  0  0  0  0  0
   92.8941   51.4456  269.4876 C   0  0  0  0  0  0  0  0  0  0  0  0
   90.2744   48.1264  266.3145 N   0  0  0  0  0  0  0  0  0  0  0  0
   89.7159   47.3451  265.2886 C   0  0  0  0  0  0  0  0  0  0  0  0
   90.4198   47.1284  264.0960 C   0  0  0  0  0  0  0  0  0  0  0  0
   89.9137   46.4353  263.0457 N   0  0  0  0  0  0  0  0  0  0  0  0
   88.6627   45.9369  263.1677 C   0  0  0  0  0  0  0  0  0  0  0  0
   87.8911   46.0926  264.3161 C   0  0  0  0  0  0  0  0  0  0  0  0
   88.4236   46.8007  265.4015 C   0  0  0  0  0  0  0  0  0  0  0  0
   87.4795   46.8934  266.9237 S   0  0  0  0  0  0  0  0  0  0  0  0
   86.1396   46.3756  266.6690 O   0  0  0  0  0  0  0  0  0  0  0  0
   87.6540   48.2479  267.4799 O   0  0  0  0  0  0  0  0  0  0  0  0
   88.3811   45.6759  268.0440 C   0  0  0  0  0  0  0  0  0  0  0  0
   93.1885   52.6594  270.0906 C   0  0  0  0  0  0  0  0  0  0  0  0
   94.1456   53.5742  269.5213 C   0  0  0  0  0  0  0  0  0  0  0  0
   94.1354   54.7290  270.3575 C   0  0  0  0  0  0  0  0  0  0  0  0
   93.2772   54.4881  271.4048 C   0  0  0  0  0  0  0  0  0  0  0  0
   92.7219   53.2385  271.2473 N   0  0  0  0  0  0  0  0  0  0  0  0
   91.7905   52.6217  272.1984 C   0  0  0  0  0  0  0  0  0  0  0  0
   95.8952   54.0681  267.6802 C   0  0  0  0  0  0  0  0  0  0  0  0
   92.2859   46.4142  266.0026 H   0  0  0  0  0  0  0  0  0  0  0  0
   91.2098   50.2830  267.4449 H   0  0  0  0  0  0  0  0  0  0  0  0
   97.2477   48.3583  267.1059 H   0  0  0  0  0  0  0  0  0  0  0  0
   96.8635   47.7162  268.7389 H   0  0  0  0  0  0  0  0  0  0  0  0
   96.7930   45.9583  267.0777 H   0  0  0  0  0  0  0  0  0  0  0  0
   95.0970   51.6152  266.8994 H   0  0  0  0  0  0  0  0  0  0  0  0
   92.1429   50.7904  269.9033 H   0  0  0  0  0  0  0  0  0  0  0  0
   91.4168   47.5343  264.0089 H   0  0  0  0  0  0  0  0  0  0  0  0
   88.2422   45.3924  262.3351 H   0  0  0  0  0  0  0  0  0  0  0  0
   86.8970   45.6738  264.3695 H   0  0  0  0  0  0  0  0  0  0  0  0
   87.8858   45.6442  269.0257 H   0  0  0  0  0  0  0  0  0  0  0  0
   88.3590   44.6743  267.5898 H   0  0  0  0  0  0  0  0  0  0  0  0
   89.4252   45.9982  268.1704 H   0  0  0  0  0  0  0  0  0  0  0  0
   94.7022   55.6341  270.1967 H   0  0  0  0  0  0  0  0  0  0  0  0
   93.0723   55.1684  272.2181 H   0  0  0  0  0  0  0  0  0  0  0  0
   91.5973   53.3184  273.0274 H   0  0  0  0  0  0  0  0  0  0  0  0
   90.8448   52.3893  271.6869 H   0  0  0  0  0  0  0  0  0  0  0  0
   92.2309   51.6946  272.5939 H   0  0  0  0  0  0  0  0  0  0  0  0
   95.4067   54.7136  266.9355 H   0  0  0  0  0  0  0  0  0  0  0  0
   96.3875   54.6927  268.4402 H   0  0  0  0  0  0  0  0  0  0  0  0
   96.6458   53.4369  267.1821 H   0  0  0  0  0  0  0  0  0  0  0  0
  1  4  2  0  0  0  0
  1  6  1  0  0  0  0
  1 11  1  0  0  0  0
  2  3  1  0  0  0  0
  2  5  2  0  0  0  0
  3  4  1  0  0  0  0
  3 15  2  3  0  0  0
  5  6  1  0  0  0  0
  5 10  1  0  0  0  0
  6  7  2  0  0  0  0
  7  8  1  0  0  0  0
  8  9  1  0  0  0  0
  9 10  2  0  0  0  0
 11 12  2  0  0  0  0
 11 14  1  0  0  0  0
 12 13  1  0  0  0  0
 13 27  2  0  0  0  0
 13 32  1  0  0  0  0
 14 26  2  0  0  0  0
 15 16  1  0  0  0  0
 16 17  2  0  0  0  0
 16 21  1  0  0  0  0
 17 18  1  0  0  0  0
 18 19  2  0  0  0  0
 19 20  1  0  0  0  0
 20 21  2  0  0  0  0
 21 22  1  0  0  0  0
 22 23  2  0  0  0  0
 22 24  2  0  0  0  0
 22 25  1  0  0  0  0
 26 27  1  0  0  0  0
 26 30  1  0  0  0  0
 27 28  1  0  0  0  0
 28 29  2  0  0  0  0
 29 30  1  0  0  0  0
 30 31  1  0  0  0  0
  2 33  1  0  0  0  0
  4 34  1  0  0  0  0
  8 35  1  0  0  0  0
  8 36  1  0  0  0  0
  9 37  1  0  0  0  0
 12 38  1  0  0  0  0
 14 39  1  0  0  0  0
 17 40  1  0  0  0  0
 19 41  1  0  0  0  0
 20 42  1  0  0  0  0
 25 43  1  0  0  0  0
 25 44  1  0  0  0  0
 25 45  1  0  0  0  0
 28 46  1  0  0  0  0
 29 47  1  0  0  0  0
 31 48  1  0  0  0  0
 31 49  1  0  0  0  0
 31 50  1  0  0  0  0
 32 51  1  0  0  0  0
 32 52  1  0  0  0  0
 32 53  1  0  0  0  0
M  END
> <ID>
56

> <IC50[uM]>
0.018

$$$$
