20
  -OEChem-05192314313D
 Structure written by MMmdl.
 47 50  0     0  0  0  0  0  0999 V2000
   92.5739   47.3336  266.4565 C   0  0  0  0  0  0  0  0  0  0  0  0
   91.6324   48.3172  266.6741 C   0  0  0  0  0  0  0  0  0  0  0  0
   91.9632   49.5168  267.2998 C   0  0  0  0  0  0  0  0  0  0  0  0
   93.2765   49.7975  267.6776 C   0  0  0  0  0  0  0  0  0  0  0  0
   93.8958   47.5362  266.9051 C   0  0  0  0  0  0  0  0  0  0  0  0
   94.2730   48.7873  267.5121 C   0  0  0  0  0  0  0  0  0  0  0  0
   95.5665   48.9603  267.9405 N   0  0  0  0  0  0  0  0  0  0  0  0
   96.4572   47.9542  267.7463 C   0  0  0  0  0  0  0  0  0  0  0  0
   96.0617   46.7355  267.2061 C   0  0  0  0  0  0  0  0  0  0  0  0
   94.8014   46.5336  266.7720 N   0  0  0  0  0  0  0  0  0  0  0  0
   90.2859   48.1283  266.3232 N   0  0  0  0  0  0  0  0  0  0  0  0
   89.7235   47.3483  265.2931 C   0  0  0  0  0  0  0  0  0  0  0  0
   90.4123   47.1279  264.0929 C   0  0  0  0  0  0  0  0  0  0  0  0
   89.9113   46.4423  263.0351 N   0  0  0  0  0  0  0  0  0  0  0  0
   88.6625   45.9485  263.1520 C   0  0  0  0  0  0  0  0  0  0  0  0
   87.8836   46.0962  264.3010 C   0  0  0  0  0  0  0  0  0  0  0  0
   88.4186   46.7903  265.3979 C   0  0  0  0  0  0  0  0  0  0  0  0
   87.4853   46.8968  266.9278 S   0  0  0  0  0  0  0  0  0  0  0  0
   86.1266   46.3735  266.6676 O   0  0  0  0  0  0  0  0  0  0  0  0
   87.6689   48.2339  267.4731 O   0  0  0  0  0  0  0  0  0  0  0  0
   88.3809   45.6744  268.0584 C   0  0  0  0  0  0  0  0  0  0  0  0
   93.5881   51.1129  268.3403 C   0  0  0  0  0  0  0  0  0  0  0  0
   92.8836   51.4776  269.4978 C   0  0  0  0  0  0  0  0  0  0  0  0
   93.2031   52.6955  270.1335 C   0  0  0  0  0  0  0  0  0  0  0  0
   94.1885   53.5265  269.6279 C   0  0  0  0  0  0  0  0  0  0  0  0
   94.8277   53.1962  268.4343 C   0  0  0  0  0  0  0  0  0  0  0  0
   94.5514   51.9702  267.8248 C   0  0  0  0  0  0  0  0  0  0  0  0
   95.7310   53.9715  267.7910 O   0  0  0  0  0  0  0  0  0  0  0  0
   96.0567   55.2652  268.3379 C   0  0  0  0  0  0  0  0  0  0  0  0
   92.3027   46.4196  265.9491 H   0  0  0  0  0  0  0  0  0  0  0  0
   91.1885   50.2433  267.4962 H   0  0  0  0  0  0  0  0  0  0  0  0
   97.4922   48.1032  268.0164 H   0  0  0  0  0  0  0  0  0  0  0  0
   96.7803   45.9326  267.1326 H   0  0  0  0  0  0  0  0  0  0  0  0
   89.6264   48.6219  266.8900 H   0  0  0  0  0  0  0  0  0  0  0  0
   91.4101   47.5314  264.0040 H   0  0  0  0  0  0  0  0  0  0  0  0
   88.2432   45.4113  262.3141 H   0  0  0  0  0  0  0  0  0  0  0  0
   86.8865   45.6836  264.3454 H   0  0  0  0  0  0  0  0  0  0  0  0
   87.8882   45.6549  269.0417 H   0  0  0  0  0  0  0  0  0  0  0  0
   88.3474   44.6698  267.6117 H   0  0  0  0  0  0  0  0  0  0  0  0
   89.4285   45.9871  268.1795 H   0  0  0  0  0  0  0  0  0  0  0  0
   92.1102   50.8369  269.8950 H   0  0  0  0  0  0  0  0  0  0  0  0
   92.6712   52.9842  271.0280 H   0  0  0  0  0  0  0  0  0  0  0  0
   94.4609   54.4278  270.1568 H   0  0  0  0  0  0  0  0  0  0  0  0
   95.0963   51.6840  266.9373 H   0  0  0  0  0  0  0  0  0  0  0  0
   96.8012   55.7585  267.6957 H   0  0  0  0  0  0  0  0  0  0  0  0
   95.1474   55.8824  268.3857 H   0  0  0  0  0  0  0  0  0  0  0  0
   96.4697   55.1419  269.3499 H   0  0  0  0  0  0  0  0  0  0  0  0
  1  2  2  0  0  0  0
  1  5  1  0  0  0  0
  2  3  1  0  0  0  0
  2 11  1  0  0  0  0
  3  4  2  0  0  0  0
  4  6  1  0  0  0  0
  4 22  1  0  0  0  0
  5  6  2  0  0  0  0
  5 10  1  0  0  0  0
  6  7  1  0  0  0  0
  7  8  2  0  0  0  0
  8  9  1  0  0  0  0
  9 10  2  0  0  0  0
 11 12  1  0  0  0  0
 12 13  2  0  0  0  0
 12 17  1  0  0  0  0
 13 14  1  0  0  0  0
 14 15  2  0  0  0  0
 15 16  1  0  0  0  0
 16 17  2  0  0  0  0
 17 18  1  0  0  0  0
 18 19  2  0  0  0  0
 18 20  2  0  0  0  0
 18 21  1  0  0  0  0
 22 23  2  0  0  0  0
 22 27  1  0  0  0  0
 23 24  1  0  0  0  0
 24 25  2  0  0  0  0
 25 26  1  0  0  0  0
 26 27  2  0  0  0  0
 26 28  1  0  0  0  0
 28 29  1  0  0  0  0
  1 30  1  0  0  0  0
  3 31  1  0  0  0  0
  8 32  1  0  0  0  0
  9 33  1  0  0  0  0
 11 34  1  0  0  0  0
 13 35  1  0  0  0  0
 15 36  1  0  0  0  0
 16 37  1  0  0  0  0
 21 38  1  0  0  0  0
 21 39  1  0  0  0  0
 21 40  1  0  0  0  0
 23 41  1  0  0  0  0
 24 42  1  0  0  0  0
 25 43  1  0  0  0  0
 27 44  1  0  0  0  0
 29 45  1  0  0  0  0
 29 46  1  0  0  0  0
 29 47  1  0  0  0  0
M  END
> <ID>
20

> <IC50[uM]>
0.572

$$$$
20
  -OEChem-05192314313D
 Structure written by MMmdl.
 47 50  0     0  0  0  0  0  0999 V2000
   92.5739   47.3336  266.4565 C   0  0  0  0  0  0  0  0  0  0  0  0
   91.6324   48.3172  266.6741 C   0  0  0  0  0  0  0  0  0  0  0  0
   91.9632   49.5168  267.2998 C   0  0  0  0  0  0  0  0  0  0  0  0
   93.2765   49.7975  267.6776 C   0  0  0  0  0  0  0  0  0  0  0  0
   93.8958   47.5362  266.9051 C   0  0  0  0  0  0  0  0  0  0  0  0
   94.2730   48.7873  267.5121 C   0  0  0  0  0  0  0  0  0  0  0  0
   95.5665   48.9603  267.9405 N   0  0  0  0  0  0  0  0  0  0  0  0
   96.4572   47.9542  267.7463 C   0  0  0  0  0  0  0  0  0  0  0  0
   96.0617   46.7355  267.2061 C   0  0  0  0  0  0  0  0  0  0  0  0
   94.8014   46.5336  266.7720 N   0  0  0  0  0  0  0  0  0  0  0  0
   90.2859   48.1283  266.3232 N   0  0  0  0  0  0  0  0  0  0  0  0
   89.7235   47.3483  265.2931 C   0  0  0  0  0  0  0  0  0  0  0  0
   90.4123   47.1279  264.0929 C   0  0  0  0  0  0  0  0  0  0  0  0
   89.9113   46.4423  263.0351 N   0  0  0  0  0  0  0  0  0  0  0  0
   88.6625   45.9485  263.1520 C   0  0  0  0  0  0  0  0  0  0  0  0
   87.8836   46.0962  264.3010 C   0  0  0  0  0  0  0  0  0  0  0  0
   88.4186   46.7903  265.3979 C   0  0  0  0  0  0  0  0  0  0  0  0
   87.4853   46.8968  266.9278 S   0  0  0  0  0  0  0  0  0  0  0  0
   86.1266   46.3735  266.6676 O   0  0  0  0  0  0  0  0  0  0  0  0
   87.6689   48.2339  267.4731 O   0  0  0  0  0  0  0  0  0  0  0  0
   88.3809   45.6744  268.0584 C   0  0  0  0  0  0  0  0  0  0  0  0
   93.5881   51.1129  268.3403 C   0  0  0  0  0  0  0  0  0  0  0  0
   92.8836   51.4776  269.4978 C   0  0  0  0  0  0  0  0  0  0  0  0
   93.2031   52.6955  270.1335 C   0  0  0  0  0  0  0  0  0  0  0  0
   94.1885   53.5265  269.6279 C   0  0  0  0  0  0  0  0  0  0  0  0
   94.8277   53.1962  268.4343 C   0  0  0  0  0  0  0  0  0  0  0  0
   94.5514   51.9702  267.8248 C   0  0  0  0  0  0  0  0  0  0  0  0
   95.7310   53.9715  267.7910 O   0  0  0  0  0  0  0  0  0  0  0  0
   96.0567   55.2652  268.3379 C   0  0  0  0  0  0  0  0  0  0  0  0
   92.3027   46.4196  265.9491 H   0  0  0  0  0  0  0  0  0  0  0  0
   91.1885   50.2433  267.4962 H   0  0  0  0  0  0  0  0  0  0  0  0
   97.4922   48.1032  268.0164 H   0  0  0  0  0  0  0  0  0  0  0  0
   96.7803   45.9326  267.1326 H   0  0  0  0  0  0  0  0  0  0  0  0
   94.5385   45.6614  266.3596 H   0  0  0  0  0  0  0  0  0  0  0  0
   91.4101   47.5314  264.0040 H   0  0  0  0  0  0  0  0  0  0  0  0
   88.2432   45.4113  262.3141 H   0  0  0  0  0  0  0  0  0  0  0  0
   86.8865   45.6836  264.3454 H   0  0  0  0  0  0  0  0  0  0  0  0
   87.8882   45.6549  269.0417 H   0  0  0  0  0  0  0  0  0  0  0  0
   88.3474   44.6698  267.6117 H   0  0  0  0  0  0  0  0  0  0  0  0
   89.4285   45.9871  268.1795 H   0  0  0  0  0  0  0  0  0  0  0  0
   92.1102   50.8369  269.8950 H   0  0  0  0  0  0  0  0  0  0  0  0
   92.6712   52.9842  271.0280 H   0  0  0  0  0  0  0  0  0  0  0  0
   94.4609   54.4278  270.1568 H   0  0  0  0  0  0  0  0  0  0  0  0
   95.0963   51.6840  266.9373 H   0  0  0  0  0  0  0  0  0  0  0  0
   96.8012   55.7585  267.6957 H   0  0  0  0  0  0  0  0  0  0  0  0
   95.1474   55.8824  268.3857 H   0  0  0  0  0  0  0  0  0  0  0  0
   96.4697   55.1419  269.3499 H   0  0  0  0  0  0  0  0  0  0  0  0
  1  2  1  0  0  0  0
  1  5  2  0  0  0  0
  2  3  1  0  0  0  0
  2 11  2  0  0  0  0
  3  4  2  0  0  0  0
  4  6  1  0  0  0  0
  4 22  1  0  0  0  0
  5  6  1  0  0  0  0
  5 10  1  0  0  0  0
  6  7  2  0  0  0  0
  7  8  1  0  0  0  0
  8  9  2  0  0  0  0
  9 10  1  0  0  0  0
 11 12  1  0  0  0  0
 12 13  2  0  0  0  0
 12 17  1  0  0  0  0
 13 14  1  0  0  0  0
 14 15  2  0  0  0  0
 15 16  1  0  0  0  0
 16 17  2  0  0  0  0
 17 18  1  0  0  0  0
 18 19  2  0  0  0  0
 18 20  2  0  0  0  0
 18 21  1  0  0  0  0
 22 23  2  0  0  0  0
 22 27  1  0  0  0  0
 23 24  1  0  0  0  0
 24 25  2  0  0  0  0
 25 26  1  0  0  0  0
 26 27  2  0  0  0  0
 26 28  1  0  0  0  0
 28 29  1  0  0  0  0
  1 30  1  0  0  0  0
  3 31  1  0  0  0  0
  8 32  1  0  0  0  0
  9 33  1  0  0  0  0
 10 34  1  0  0  0  0
 13 35  1  0  0  0  0
 15 36  1  0  0  0  0
 16 37  1  0  0  0  0
 21 38  1  0  0  0  0
 21 39  1  0  0  0  0
 21 40  1  0  0  0  0
 23 41  1  0  0  0  0
 24 42  1  0  0  0  0
 25 43  1  0  0  0  0
 27 44  1  0  0  0  0
 29 45  1  0  0  0  0
 29 46  1  0  0  0  0
 29 47  1  0  0  0  0
M  END
> <ID>
20

> <IC50[uM]>
0.572

$$$$
20
  -OEChem-05192314313D
 Structure written by MMmdl.
 47 50  0     0  0  0  0  0  0999 V2000
   92.5739   47.3336  266.4565 C   0  0  0  0  0  0  0  0  0  0  0  0
   91.6324   48.3172  266.6741 C   0  0  0  0  0  0  0  0  0  0  0  0
   91.9632   49.5168  267.2998 C   0  0  0  0  0  0  0  0  0  0  0  0
   93.2765   49.7975  267.6776 C   0  0  0  0  0  0  0  0  0  0  0  0
   93.8958   47.5362  266.9051 C   0  0  0  0  0  0  0  0  0  0  0  0
   94.2730   48.7873  267.5121 C   0  0  0  0  0  0  0  0  0  0  0  0
   95.5665   48.9603  267.9405 N   0  0  0  0  0  0  0  0  0  0  0  0
   96.4572   47.9542  267.7463 C   0  0  0  0  0  0  0  0  0  0  0  0
   96.0617   46.7355  267.2061 C   0  0  0  0  0  0  0  0  0  0  0  0
   94.8014   46.5336  266.7720 N   0  0  0  0  0  0  0  0  0  0  0  0
   90.2859   48.1283  266.3232 N   0  0  0  0  0  0  0  0  0  0  0  0
   89.7235   47.3483  265.2931 C   0  0  0  0  0  0  0  0  0  0  0  0
   90.4123   47.1279  264.0929 C   0  0  0  0  0  0  0  0  0  0  0  0
   89.9113   46.4423  263.0351 N   0  0  0  0  0  0  0  0  0  0  0  0
   88.6625   45.9485  263.1520 C   0  0  0  0  0  0  0  0  0  0  0  0
   87.8836   46.0962  264.3010 C   0  0  0  0  0  0  0  0  0  0  0  0
   88.4186   46.7903  265.3979 C   0  0  0  0  0  0  0  0  0  0  0  0
   87.4853   46.8968  266.9278 S   0  0  0  0  0  0  0  0  0  0  0  0
   86.1266   46.3735  266.6676 O   0  0  0  0  0  0  0  0  0  0  0  0
   87.6689   48.2339  267.4731 O   0  0  0  0  0  0  0  0  0  0  0  0
   88.3809   45.6744  268.0584 C   0  0  0  0  0  0  0  0  0  0  0  0
   93.5881   51.1129  268.3403 C   0  0  0  0  0  0  0  0  0  0  0  0
   92.8836   51.4776  269.4978 C   0  0  0  0  0  0  0  0  0  0  0  0
   93.2031   52.6955  270.1335 C   0  0  0  0  0  0  0  0  0  0  0  0
   94.1885   53.5265  269.6279 C   0  0  0  0  0  0  0  0  0  0  0  0
   94.8277   53.1962  268.4343 C   0  0  0  0  0  0  0  0  0  0  0  0
   94.5514   51.9702  267.8248 C   0  0  0  0  0  0  0  0  0  0  0  0
   95.7310   53.9715  267.7910 O   0  0  0  0  0  0  0  0  0  0  0  0
   96.0567   55.2652  268.3379 C   0  0  0  0  0  0  0  0  0  0  0  0
   92.2044   46.4207  266.9465 H   0  0  0  0  0  0  0  0  0  0  0  0
   92.6244   47.1716  265.3697 H   0  0  0  0  0  0  0  0  0  0  0  0
   91.1885   50.2433  267.4962 H   0  0  0  0  0  0  0  0  0  0  0  0
   97.4922   48.1032  268.0164 H   0  0  0  0  0  0  0  0  0  0  0  0
   96.7803   45.9326  267.1326 H   0  0  0  0  0  0  0  0  0  0  0  0
   91.4101   47.5314  264.0040 H   0  0  0  0  0  0  0  0  0  0  0  0
   88.2432   45.4113  262.3141 H   0  0  0  0  0  0  0  0  0  0  0  0
   86.8865   45.6836  264.3454 H   0  0  0  0  0  0  0  0  0  0  0  0
   87.8882   45.6549  269.0417 H   0  0  0  0  0  0  0  0  0  0  0  0
   88.3474   44.6698  267.6117 H   0  0  0  0  0  0  0  0  0  0  0  0
   89.4285   45.9871  268.1795 H   0  0  0  0  0  0  0  0  0  0  0  0
   92.1102   50.8369  269.8950 H   0  0  0  0  0  0  0  0  0  0  0  0
   92.6712   52.9842  271.0280 H   0  0  0  0  0  0  0  0  0  0  0  0
   94.4609   54.4278  270.1568 H   0  0  0  0  0  0  0  0  0  0  0  0
   95.0963   51.6840  266.9373 H   0  0  0  0  0  0  0  0  0  0  0  0
   96.8012   55.7585  267.6957 H   0  0  0  0  0  0  0  0  0  0  0  0
   95.1474   55.8824  268.3857 H   0  0  0  0  0  0  0  0  0  0  0  0
   96.4697   55.1419  269.3499 H   0  0  0  0  0  0  0  0  0  0  0  0
  1  2  1  0  0  0  0
  1  5  1  0  0  0  0
  2  3  1  0  0  0  0
  2 11  2  0  0  0  0
  3  4  2  0  0  0  0
  4  6  1  0  0  0  0
  4 22  1  0  0  0  0
  5  6  2  0  0  0  0
  5 10  1  0  0  0  0
  6  7  1  0  0  0  0
  7  8  2  0  0  0  0
  8  9  1  0  0  0  0
  9 10  2  0  0  0  0
 11 12  1  0  0  0  0
 12 13  2  0  0  0  0
 12 17  1  0  0  0  0
 13 14  1  0  0  0  0
 14 15  2  0  0  0  0
 15 16  1  0  0  0  0
 16 17  2  0  0  0  0
 17 18  1  0  0  0  0
 18 19  2  0  0  0  0
 18 20  2  0  0  0  0
 18 21  1  0  0  0  0
 22 23  2  0  0  0  0
 22 27  1  0  0  0  0
 23 24  1  0  0  0  0
 24 25  2  0  0  0  0
 25 26  1  0  0  0  0
 26 27  2  0  0  0  0
 26 28  1  0  0  0  0
 28 29  1  0  0  0  0
  1 30  1  0  0  0  0
  1 31  1  0  0  0  0
  3 32  1  0  0  0  0
  8 33  1  0  0  0  0
  9 34  1  0  0  0  0
 13 35  1  0  0  0  0
 15 36  1  0  0  0  0
 16 37  1  0  0  0  0
 21 38  1  0  0  0  0
 21 39  1  0  0  0  0
 21 40  1  0  0  0  0
 23 41  1  0  0  0  0
 24 42  1  0  0  0  0
 25 43  1  0  0  0  0
 27 44  1  0  0  0  0
 29 45  1  0  0  0  0
 29 46  1  0  0  0  0
 29 47  1  0  0  0  0
M  END
> <ID>
20

> <IC50[uM]>
0.572

$$$$
20
  -OEChem-05192314313D
 Structure written by MMmdl.
 47 50  0     0  0  0  0  0  0999 V2000
   92.5739   47.3336  266.4565 C   0  0  0  0  0  0  0  0  0  0  0  0
   91.6324   48.3172  266.6741 C   0  0  0  0  0  0  0  0  0  0  0  0
   91.9632   49.5168  267.2998 C   0  0  0  0  0  0  0  0  0  0  0  0
   93.2765   49.7975  267.6776 C   0  0  0  0  0  0  0  0  0  0  0  0
   93.8958   47.5362  266.9051 C   0  0  0  0  0  0  0  0  0  0  0  0
   94.2730   48.7873  267.5121 C   0  0  0  0  0  0  0  0  0  0  0  0
   95.5665   48.9603  267.9405 N   0  0  0  0  0  0  0  0  0  0  0  0
   96.4572   47.9542  267.7463 C   0  0  0  0  0  0  0  0  0  0  0  0
   96.0617   46.7355  267.2061 C   0  0  0  0  0  0  0  0  0  0  0  0
   94.8014   46.5336  266.7720 N   0  0  0  0  0  0  0  0  0  0  0  0
   90.2859   48.1283  266.3232 N   0  0  0  0  0  0  0  0  0  0  0  0
   89.7235   47.3483  265.2931 C   0  0  0  0  0  0  0  0  0  0  0  0
   90.4123   47.1279  264.0929 C   0  0  0  0  0  0  0  0  0  0  0  0
   89.9113   46.4423  263.0351 N   0  0  0  0  0  0  0  0  0  0  0  0
   88.6625   45.9485  263.1520 C   0  0  0  0  0  0  0  0  0  0  0  0
   87.8836   46.0962  264.3010 C   0  0  0  0  0  0  0  0  0  0  0  0
   88.4186   46.7903  265.3979 C   0  0  0  0  0  0  0  0  0  0  0  0
   87.4853   46.8968  266.9278 S   0  0  0  0  0  0  0  0  0  0  0  0
   86.1266   46.3735  266.6676 O   0  0  0  0  0  0  0  0  0  0  0  0
   87.6689   48.2339  267.4731 O   0  0  0  0  0  0  0  0  0  0  0  0
   88.3809   45.6744  268.0584 C   0  0  0  0  0  0  0  0  0  0  0  0
   93.5881   51.1129  268.3403 C   0  0  0  0  0  0  0  0  0  0  0  0
   92.8836   51.4776  269.4978 C   0  0  0  0  0  0  0  0  0  0  0  0
   93.2031   52.6955  270.1335 C   0  0  0  0  0  0  0  0  0  0  0  0
   94.1885   53.5265  269.6279 C   0  0  0  0  0  0  0  0  0  0  0  0
   94.8277   53.1962  268.4343 C   0  0  0  0  0  0  0  0  0  0  0  0
   94.5514   51.9702  267.8248 C   0  0  0  0  0  0  0  0  0  0  0  0
   95.7310   53.9715  267.7910 O   0  0  0  0  0  0  0  0  0  0  0  0
   96.0567   55.2652  268.3379 C   0  0  0  0  0  0  0  0  0  0  0  0
   92.3027   46.4196  265.9491 H   0  0  0  0  0  0  0  0  0  0  0  0
   91.6577   50.3206  266.6138 H   0  0  0  0  0  0  0  0  0  0  0  0
   91.3576   49.5673  268.2167 H   0  0  0  0  0  0  0  0  0  0  0  0
   97.4922   48.1032  268.0164 H   0  0  0  0  0  0  0  0  0  0  0  0
   96.7803   45.9326  267.1326 H   0  0  0  0  0  0  0  0  0  0  0  0
   91.4101   47.5314  264.0040 H   0  0  0  0  0  0  0  0  0  0  0  0
   88.2432   45.4113  262.3141 H   0  0  0  0  0  0  0  0  0  0  0  0
   86.8865   45.6836  264.3454 H   0  0  0  0  0  0  0  0  0  0  0  0
   87.8882   45.6549  269.0417 H   0  0  0  0  0  0  0  0  0  0  0  0
   88.3474   44.6698  267.6117 H   0  0  0  0  0  0  0  0  0  0  0  0
   89.4285   45.9871  268.1795 H   0  0  0  0  0  0  0  0  0  0  0  0
   92.1102   50.8369  269.8950 H   0  0  0  0  0  0  0  0  0  0  0  0
   92.6712   52.9842  271.0280 H   0  0  0  0  0  0  0  0  0  0  0  0
   94.4609   54.4278  270.1568 H   0  0  0  0  0  0  0  0  0  0  0  0
   95.0963   51.6840  266.9373 H   0  0  0  0  0  0  0  0  0  0  0  0
   96.8012   55.7585  267.6957 H   0  0  0  0  0  0  0  0  0  0  0  0
   95.1474   55.8824  268.3857 H   0  0  0  0  0  0  0  0  0  0  0  0
   96.4697   55.1419  269.3499 H   0  0  0  0  0  0  0  0  0  0  0  0
  1  2  1  0  0  0  0
  1  5  2  0  0  0  0
  2  3  1  0  0  0  0
  2 11  2  0  0  0  0
  3  4  1  0  0  0  0
  4  6  2  0  0  0  0
  4 22  1  0  0  0  0
  5  6  1  0  0  0  0
  5 10  1  0  0  0  0
  6  7  1  0  0  0  0
  7  8  2  0  0  0  0
  8  9  1  0  0  0  0
  9 10  2  0  0  0  0
 11 12  1  0  0  0  0
 12 13  2  0  0  0  0
 12 17  1  0  0  0  0
 13 14  1  0  0  0  0
 14 15  2  0  0  0  0
 15 16  1  0  0  0  0
 16 17  2  0  0  0  0
 17 18  1  0  0  0  0
 18 19  2  0  0  0  0
 18 20  2  0  0  0  0
 18 21  1  0  0  0  0
 22 23  2  0  0  0  0
 22 27  1  0  0  0  0
 23 24  1  0  0  0  0
 24 25  2  0  0  0  0
 25 26  1  0  0  0  0
 26 27  2  0  0  0  0
 26 28  1  0  0  0  0
 28 29  1  0  0  0  0
  1 30  1  0  0  0  0
  3 31  1  0  0  0  0
  3 32  1  0  0  0  0
  8 33  1  0  0  0  0
  9 34  1  0  0  0  0
 13 35  1  0  0  0  0
 15 36  1  0  0  0  0
 16 37  1  0  0  0  0
 21 38  1  0  0  0  0
 21 39  1  0  0  0  0
 21 40  1  0  0  0  0
 23 41  1  0  0  0  0
 24 42  1  0  0  0  0
 25 43  1  0  0  0  0
 27 44  1  0  0  0  0
 29 45  1  0  0  0  0
 29 46  1  0  0  0  0
 29 47  1  0  0  0  0
M  END
> <ID>
20

> <IC50[uM]>
0.572

$$$$
20
  -OEChem-05192314313D
 Structure written by MMmdl.
 47 50  0     1  0  0  0  0  0999 V2000
   92.5739   47.3336  266.4565 C   0  0  0  0  0  0  0  0  0  0  0  0
   91.6324   48.3172  266.6741 C   0  0  0  0  0  0  0  0  0  0  0  0
   91.9632   49.5168  267.2998 C   0  0  0  0  0  0  0  0  0  0  0  0
   93.2765   49.7975  267.6776 C   0  0  0  0  0  0  0  0  0  0  0  0
   93.8958   47.5362  266.9051 C   0  0  0  0  0  0  0  0  0  0  0  0
   94.2730   48.7873  267.5121 C   0  0  0  0  0  0  0  0  0  0  0  0
   95.5665   48.9603  267.9405 N   0  0  0  0  0  0  0  0  0  0  0  0
   96.4572   47.9542  267.7463 C   0  0  0  0  0  0  0  0  0  0  0  0
   96.0617   46.7355  267.2061 C   0  0  0  0  0  0  0  0  0  0  0  0
   94.8014   46.5336  266.7720 N   0  0  0  0  0  0  0  0  0  0  0  0
   90.2859   48.1283  266.3232 N   0  0  0  0  0  0  0  0  0  0  0  0
   89.7235   47.3483  265.2931 C   0  0  0  0  0  0  0  0  0  0  0  0
   90.4123   47.1279  264.0929 C   0  0  0  0  0  0  0  0  0  0  0  0
   89.9113   46.4423  263.0351 N   0  0  0  0  0  0  0  0  0  0  0  0
   88.6625   45.9485  263.1520 C   0  0  0  0  0  0  0  0  0  0  0  0
   87.8836   46.0962  264.3010 C   0  0  0  0  0  0  0  0  0  0  0  0
   88.4186   46.7903  265.3979 C   0  0  3  0  0  0  0  0  0  0  0  0
   87.4853   46.8968  266.9278 S   0  0  0  0  0  0  0  0  0  0  0  0
   86.1266   46.3735  266.6676 O   0  0  0  0  0  0  0  0  0  0  0  0
   87.6689   48.2339  267.4731 O   0  0  0  0  0  0  0  0  0  0  0  0
   88.3809   45.6744  268.0584 C   0  0  0  0  0  0  0  0  0  0  0  0
   93.5881   51.1129  268.3403 C   0  0  0  0  0  0  0  0  0  0  0  0
   92.8836   51.4776  269.4978 C   0  0  0  0  0  0  0  0  0  0  0  0
   93.2031   52.6955  270.1335 C   0  0  0  0  0  0  0  0  0  0  0  0
   94.1885   53.5265  269.6279 C   0  0  0  0  0  0  0  0  0  0  0  0
   94.8277   53.1962  268.4343 C   0  0  0  0  0  0  0  0  0  0  0  0
   94.5514   51.9702  267.8248 C   0  0  0  0  0  0  0  0  0  0  0  0
   95.7310   53.9715  267.7910 O   0  0  0  0  0  0  0  0  0  0  0  0
   96.0567   55.2652  268.3379 C   0  0  0  0  0  0  0  0  0  0  0  0
   92.3027   46.4196  265.9491 H   0  0  0  0  0  0  0  0  0  0  0  0
   91.1885   50.2433  267.4962 H   0  0  0  0  0  0  0  0  0  0  0  0
   97.4922   48.1032  268.0164 H   0  0  0  0  0  0  0  0  0  0  0  0
   96.7803   45.9326  267.1326 H   0  0  0  0  0  0  0  0  0  0  0  0
   91.4101   47.5314  264.0040 H   0  0  0  0  0  0  0  0  0  0  0  0
   88.2432   45.4113  262.3141 H   0  0  0  0  0  0  0  0  0  0  0  0
   86.8865   45.6836  264.3454 H   0  0  0  0  0  0  0  0  0  0  0  0
   87.9701   47.7301  265.0435 H   0  0  0  0  0  0  0  0  0  0  0  0
   87.8882   45.6549  269.0417 H   0  0  0  0  0  0  0  0  0  0  0  0
   88.3474   44.6698  267.6117 H   0  0  0  0  0  0  0  0  0  0  0  0
   89.4285   45.9871  268.1795 H   0  0  0  0  0  0  0  0  0  0  0  0
   92.1102   50.8369  269.8950 H   0  0  0  0  0  0  0  0  0  0  0  0
   92.6712   52.9842  271.0280 H   0  0  0  0  0  0  0  0  0  0  0  0
   94.4609   54.4278  270.1568 H   0  0  0  0  0  0  0  0  0  0  0  0
   95.0963   51.6840  266.9373 H   0  0  0  0  0  0  0  0  0  0  0  0
   96.8012   55.7585  267.6957 H   0  0  0  0  0  0  0  0  0  0  0  0
   95.1474   55.8824  268.3857 H   0  0  0  0  0  0  0  0  0  0  0  0
   96.4697   55.1419  269.3499 H   0  0  0  0  0  0  0  0  0  0  0  0
  1  2  2  0  0  0  0
  1  5  1  0  0  0  0
  2  3  1  0  0  0  0
  2 11  1  0  0  0  0
  3  4  2  0  0  0  0
  4  6  1  0  0  0  0
  4 22  1  0  0  0  0
  5  6  2  0  0  0  0
  5 10  1  0  0  0  0
  6  7  1  0  0  0  0
  7  8  2  0  0  0  0
  8  9  1  0  0  0  0
  9 10  2  0  0  0  0
 11 12  2  3  0  0  0
 12 13  1  0  0  0  0
 12 17  1  0  0  0  0
 13 14  2  0  0  0  0
 14 15  1  0  0  0  0
 15 16  2  0  0  0  0
 16 17  1  0  0  0  0
 17 18  1  0  0  0  0
 18 19  2  0  0  0  0
 18 20  2  0  0  0  0
 18 21  1  0  0  0  0
 22 23  2  0  0  0  0
 22 27  1  0  0  0  0
 23 24  1  0  0  0  0
 24 25  2  0  0  0  0
 25 26  1  0  0  0  0
 26 27  2  0  0  0  0
 26 28  1  0  0  0  0
 28 29  1  0  0  0  0
  1 30  1  0  0  0  0
  3 31  1  0  0  0  0
  8 32  1  0  0  0  0
  9 33  1  0  0  0  0
 13 34  1  0  0  0  0
 15 35  1  0  0  0  0
 16 36  1  0  0  0  0
 17 37  1  0  0  0  0
 21 38  1  0  0  0  0
 21 39  1  0  0  0  0
 21 40  1  0  0  0  0
 23 41  1  0  0  0  0
 24 42  1  0  0  0  0
 25 43  1  0  0  0  0
 27 44  1  0  0  0  0
 29 45  1  0  0  0  0
 29 46  1  0  0  0  0
 29 47  1  0  0  0  0
M  END
> <ID>
20

> <IC50[uM]>
0.572

$$$$
20
  -OEChem-05192314313D
 Structure written by MMmdl.
 47 50  0     0  0  0  0  0  0999 V2000
   92.5739   47.3336  266.4565 C   0  0  0  0  0  0  0  0  0  0  0  0
   91.6324   48.3172  266.6741 C   0  0  0  0  0  0  0  0  0  0  0  0
   91.9632   49.5168  267.2998 C   0  0  0  0  0  0  0  0  0  0  0  0
   93.2765   49.7975  267.6776 C   0  0  0  0  0  0  0  0  0  0  0  0
   93.8958   47.5362  266.9051 C   0  0  0  0  0  0  0  0  0  0  0  0
   94.2730   48.7873  267.5121 C   0  0  0  0  0  0  0  0  0  0  0  0
   95.5665   48.9603  267.9405 N   0  0  0  0  0  0  0  0  0  0  0  0
   96.4572   47.9542  267.7463 C   0  0  0  0  0  0  0  0  0  0  0  0
   96.0617   46.7355  267.2061 C   0  0  0  0  0  0  0  0  0  0  0  0
   94.8014   46.5336  266.7720 N   0  0  0  0  0  0  0  0  0  0  0  0
   90.2859   48.1283  266.3232 N   0  0  0  0  0  0  0  0  0  0  0  0
   89.7235   47.3483  265.2931 C   0  0  0  0  0  0  0  0  0  0  0  0
   90.4123   47.1279  264.0929 C   0  0  0  0  0  0  0  0  0  0  0  0
   89.9113   46.4423  263.0351 N   0  0  0  0  0  0  0  0  0  0  0  0
   88.6625   45.9485  263.1520 C   0  0  0  0  0  0  0  0  0  0  0  0
   87.8836   46.0962  264.3010 C   0  0  0  0  0  0  0  0  0  0  0  0
   88.4186   46.7903  265.3979 C   0  0  0  0  0  0  0  0  0  0  0  0
   87.4853   46.8968  266.9278 S   0  0  0  0  0  0  0  0  0  0  0  0
   86.1266   46.3735  266.6676 O   0  0  0  0  0  0  0  0  0  0  0  0
   87.6689   48.2339  267.4731 O   0  0  0  0  0  0  0  0  0  0  0  0
   88.3809   45.6744  268.0584 C   0  0  0  0  0  0  0  0  0  0  0  0
   93.5881   51.1129  268.3403 C   0  0  0  0  0  0  0  0  0  0  0  0
   92.8836   51.4776  269.4978 C   0  0  0  0  0  0  0  0  0  0  0  0
   93.2031   52.6955  270.1335 C   0  0  0  0  0  0  0  0  0  0  0  0
   94.1885   53.5265  269.6279 C   0  0  0  0  0  0  0  0  0  0  0  0
   94.8277   53.1962  268.4343 C   0  0  0  0  0  0  0  0  0  0  0  0
   94.5514   51.9702  267.8248 C   0  0  0  0  0  0  0  0  0  0  0  0
   95.7310   53.9715  267.7910 O   0  0  0  0  0  0  0  0  0  0  0  0
   96.0567   55.2652  268.3379 C   0  0  0  0  0  0  0  0  0  0  0  0
   92.3027   46.4196  265.9491 H   0  0  0  0  0  0  0  0  0  0  0  0
   91.1885   50.2433  267.4962 H   0  0  0  0  0  0  0  0  0  0  0  0
   97.4922   48.1032  268.0164 H   0  0  0  0  0  0  0  0  0  0  0  0
   96.7803   45.9326  267.1326 H   0  0  0  0  0  0  0  0  0  0  0  0
   91.4101   47.5314  264.0040 H   0  0  0  0  0  0  0  0  0  0  0  0
   88.0819   46.4003  262.3342 H   0  0  0  0  0  0  0  0  0  0  0  0
   88.7500   44.8649  262.9844 H   0  0  0  0  0  0  0  0  0  0  0  0
   86.8865   45.6836  264.3454 H   0  0  0  0  0  0  0  0  0  0  0  0
   87.8882   45.6549  269.0417 H   0  0  0  0  0  0  0  0  0  0  0  0
   88.3474   44.6698  267.6117 H   0  0  0  0  0  0  0  0  0  0  0  0
   89.4285   45.9871  268.1795 H   0  0  0  0  0  0  0  0  0  0  0  0
   92.1102   50.8369  269.8950 H   0  0  0  0  0  0  0  0  0  0  0  0
   92.6712   52.9842  271.0280 H   0  0  0  0  0  0  0  0  0  0  0  0
   94.4609   54.4278  270.1568 H   0  0  0  0  0  0  0  0  0  0  0  0
   95.0963   51.6840  266.9373 H   0  0  0  0  0  0  0  0  0  0  0  0
   96.8012   55.7585  267.6957 H   0  0  0  0  0  0  0  0  0  0  0  0
   95.1474   55.8824  268.3857 H   0  0  0  0  0  0  0  0  0  0  0  0
   96.4697   55.1419  269.3499 H   0  0  0  0  0  0  0  0  0  0  0  0
  1  2  2  0  0  0  0
  1  5  1  0  0  0  0
  2  3  1  0  0  0  0
  2 11  1  0  0  0  0
  3  4  2  0  0  0  0
  4  6  1  0  0  0  0
  4 22  1  0  0  0  0
  5  6  2  0  0  0  0
  5 10  1  0  0  0  0
  6  7  1  0  0  0  0
  7  8  2  0  0  0  0
  8  9  1  0  0  0  0
  9 10  2  0  0  0  0
 11 12  2  3  0  0  0
 12 13  1  0  0  0  0
 12 17  1  0  0  0  0
 13 14  2  0  0  0  0
 14 15  1  0  0  0  0
 15 16  1  0  0  0  0
 16 17  2  0  0  0  0
 17 18  1  0  0  0  0
 18 19  2  0  0  0  0
 18 20  2  0  0  0  0
 18 21  1  0  0  0  0
 22 23  2  0  0  0  0
 22 27  1  0  0  0  0
 23 24  1  0  0  0  0
 24 25  2  0  0  0  0
 25 26  1  0  0  0  0
 26 27  2  0  0  0  0
 26 28  1  0  0  0  0
 28 29  1  0  0  0  0
  1 30  1  0  0  0  0
  3 31  1  0  0  0  0
  8 32  1  0  0  0  0
  9 33  1  0  0  0  0
 13 34  1  0  0  0  0
 15 35  1  0  0  0  0
 15 36  1  0  0  0  0
 16 37  1  0  0  0  0
 21 38  1  0  0  0  0
 21 39  1  0  0  0  0
 21 40  1  0  0  0  0
 23 41  1  0  0  0  0
 24 42  1  0  0  0  0
 25 43  1  0  0  0  0
 27 44  1  0  0  0  0
 29 45  1  0  0  0  0
 29 46  1  0  0  0  0
 29 47  1  0  0  0  0
M  END
> <ID>
20

> <IC50[uM]>
0.572

$$$$
20
  -OEChem-05192314313D
 Structure written by MMmdl.
 47 50  0     0  0  0  0  0  0999 V2000
   92.5739   47.3336  266.4565 C   0  0  0  0  0  0  0  0  0  0  0  0
   91.6324   48.3172  266.6741 C   0  0  0  0  0  0  0  0  0  0  0  0
   91.9632   49.5168  267.2998 C   0  0  0  0  0  0  0  0  0  0  0  0
   93.2765   49.7975  267.6776 C   0  0  0  0  0  0  0  0  0  0  0  0
   93.8958   47.5362  266.9051 C   0  0  0  0  0  0  0  0  0  0  0  0
   94.2730   48.7873  267.5121 C   0  0  0  0  0  0  0  0  0  0  0  0
   95.5665   48.9603  267.9405 N   0  0  0  0  0  0  0  0  0  0  0  0
   96.4572   47.9542  267.7463 C   0  0  0  0  0  0  0  0  0  0  0  0
   96.0617   46.7355  267.2061 C   0  0  0  0  0  0  0  0  0  0  0  0
   94.8014   46.5336  266.7720 N   0  0  0  0  0  0  0  0  0  0  0  0
   90.2859   48.1283  266.3232 N   0  0  0  0  0  0  0  0  0  0  0  0
   89.7235   47.3483  265.2931 C   0  0  0  0  0  0  0  0  0  0  0  0
   90.4123   47.1279  264.0929 C   0  0  0  0  0  0  0  0  0  0  0  0
   89.9113   46.4423  263.0351 N   0  0  0  0  0  0  0  0  0  0  0  0
   88.6625   45.9485  263.1520 C   0  0  0  0  0  0  0  0  0  0  0  0
   87.8836   46.0962  264.3010 C   0  0  0  0  0  0  0  0  0  0  0  0
   88.4186   46.7903  265.3979 C   0  0  0  0  0  0  0  0  0  0  0  0
   87.4853   46.8968  266.9278 S   0  0  0  0  0  0  0  0  0  0  0  0
   86.1266   46.3735  266.6676 O   0  0  0  0  0  0  0  0  0  0  0  0
   87.6689   48.2339  267.4731 O   0  0  0  0  0  0  0  0  0  0  0  0
   88.3809   45.6744  268.0584 C   0  0  0  0  0  0  0  0  0  0  0  0
   93.5881   51.1129  268.3403 C   0  0  0  0  0  0  0  0  0  0  0  0
   92.8836   51.4776  269.4978 C   0  0  0  0  0  0  0  0  0  0  0  0
   93.2031   52.6955  270.1335 C   0  0  0  0  0  0  0  0  0  0  0  0
   94.1885   53.5265  269.6279 C   0  0  0  0  0  0  0  0  0  0  0  0
   94.8277   53.1962  268.4343 C   0  0  0  0  0  0  0  0  0  0  0  0
   94.5514   51.9702  267.8248 C   0  0  0  0  0  0  0  0  0  0  0  0
   95.7310   53.9715  267.7910 O   0  0  0  0  0  0  0  0  0  0  0  0
   96.0567   55.2652  268.3379 C   0  0  0  0  0  0  0  0  0  0  0  0
   92.3027   46.4196  265.9491 H   0  0  0  0  0  0  0  0  0  0  0  0
   91.1885   50.2433  267.4962 H   0  0  0  0  0  0  0  0  0  0  0  0
   97.4922   48.1032  268.0164 H   0  0  0  0  0  0  0  0  0  0  0  0
   96.7803   45.9326  267.1326 H   0  0  0  0  0  0  0  0  0  0  0  0
   90.6611   48.1274  263.7067 H   0  0  0  0  0  0  0  0  0  0  0  0
   91.3370   46.6030  264.3745 H   0  0  0  0  0  0  0  0  0  0  0  0
   88.2432   45.4113  262.3141 H   0  0  0  0  0  0  0  0  0  0  0  0
   86.8865   45.6836  264.3454 H   0  0  0  0  0  0  0  0  0  0  0  0
   87.8882   45.6549  269.0417 H   0  0  0  0  0  0  0  0  0  0  0  0
   88.3474   44.6698  267.6117 H   0  0  0  0  0  0  0  0  0  0  0  0
   89.4285   45.9871  268.1795 H   0  0  0  0  0  0  0  0  0  0  0  0
   92.1102   50.8369  269.8950 H   0  0  0  0  0  0  0  0  0  0  0  0
   92.6712   52.9842  271.0280 H   0  0  0  0  0  0  0  0  0  0  0  0
   94.4609   54.4278  270.1568 H   0  0  0  0  0  0  0  0  0  0  0  0
   95.0963   51.6840  266.9373 H   0  0  0  0  0  0  0  0  0  0  0  0
   96.8012   55.7585  267.6957 H   0  0  0  0  0  0  0  0  0  0  0  0
   95.1474   55.8824  268.3857 H   0  0  0  0  0  0  0  0  0  0  0  0
   96.4697   55.1419  269.3499 H   0  0  0  0  0  0  0  0  0  0  0  0
  1  2  2  0  0  0  0
  1  5  1  0  0  0  0
  2  3  1  0  0  0  0
  2 11  1  0  0  0  0
  3  4  2  0  0  0  0
  4  6  1  0  0  0  0
  4 22  1  0  0  0  0
  5  6  2  0  0  0  0
  5 10  1  0  0  0  0
  6  7  1  0  0  0  0
  7  8  2  0  0  0  0
  8  9  1  0  0  0  0
  9 10  2  0  0  0  0
 11 12  2  3  0  0  0
 12 13  1  0  0  0  0
 12 17  1  0  0  0  0
 13 14  1  0  0  0  0
 14 15  2  0  0  0  0
 15 16  1  0  0  0  0
 16 17  2  0  0  0  0
 17 18  1  0  0  0  0
 18 19  2  0  0  0  0
 18 20  2  0  0  0  0
 18 21  1  0  0  0  0
 22 23  2  0  0  0  0
 22 27  1  0  0  0  0
 23 24  1  0  0  0  0
 24 25  2  0  0  0  0
 25 26  1  0  0  0  0
 26 27  2  0  0  0  0
 26 28  1  0  0  0  0
 28 29  1  0  0  0  0
  1 30  1  0  0  0  0
  3 31  1  0  0  0  0
  8 32  1  0  0  0  0
  9 33  1  0  0  0  0
 13 34  1  0  0  0  0
 13 35  1  0  0  0  0
 15 36  1  0  0  0  0
 16 37  1  0  0  0  0
 21 38  1  0  0  0  0
 21 39  1  0  0  0  0
 21 40  1  0  0  0  0
 23 41  1  0  0  0  0
 24 42  1  0  0  0  0
 25 43  1  0  0  0  0
 27 44  1  0  0  0  0
 29 45  1  0  0  0  0
 29 46  1  0  0  0  0
 29 47  1  0  0  0  0
M  END
> <ID>
20

> <IC50[uM]>
0.572

$$$$
20
  -OEChem-05192314313D
 Structure written by MMmdl.
 47 50  0     1  0  0  0  0  0999 V2000
   92.5739   47.3336  266.4565 C   0  0  0  0  0  0  0  0  0  0  0  0
   91.6324   48.3172  266.6741 C   0  0  0  0  0  0  0  0  0  0  0  0
   91.9632   49.5168  267.2998 C   0  0  0  0  0  0  0  0  0  0  0  0
   93.2765   49.7975  267.6776 C   0  0  0  0  0  0  0  0  0  0  0  0
   93.8958   47.5362  266.9051 C   0  0  0  0  0  0  0  0  0  0  0  0
   94.2730   48.7873  267.5121 C   0  0  3  0  0  0  0  0  0  0  0  0
   95.5665   48.9603  267.9405 N   0  0  0  0  0  0  0  0  0  0  0  0
   96.4572   47.9542  267.7463 C   0  0  0  0  0  0  0  0  0  0  0  0
   96.0617   46.7355  267.2061 C   0  0  0  0  0  0  0  0  0  0  0  0
   94.8014   46.5336  266.7720 N   0  0  0  0  0  0  0  0  0  0  0  0
   90.2859   48.1283  266.3232 N   0  0  0  0  0  0  0  0  0  0  0  0
   89.7235   47.3483  265.2931 C   0  0  0  0  0  0  0  0  0  0  0  0
   90.4123   47.1279  264.0929 C   0  0  0  0  0  0  0  0  0  0  0  0
   89.9113   46.4423  263.0351 N   0  0  0  0  0  0  0  0  0  0  0  0
   88.6625   45.9485  263.1520 C   0  0  0  0  0  0  0  0  0  0  0  0
   87.8836   46.0962  264.3010 C   0  0  0  0  0  0  0  0  0  0  0  0
   88.4186   46.7903  265.3979 C   0  0  0  0  0  0  0  0  0  0  0  0
   87.4853   46.8968  266.9278 S   0  0  0  0  0  0  0  0  0  0  0  0
   86.1266   46.3735  266.6676 O   0  0  0  0  0  0  0  0  0  0  0  0
   87.6689   48.2339  267.4731 O   0  0  0  0  0  0  0  0  0  0  0  0
   88.3809   45.6744  268.0584 C   0  0  0  0  0  0  0  0  0  0  0  0
   93.5881   51.1129  268.3403 C   0  0  0  0  0  0  0  0  0  0  0  0
   92.8836   51.4776  269.4978 C   0  0  0  0  0  0  0  0  0  0  0  0
   93.2031   52.6955  270.1335 C   0  0  0  0  0  0  0  0  0  0  0  0
   94.1885   53.5265  269.6279 C   0  0  0  0  0  0  0  0  0  0  0  0
   94.8277   53.1962  268.4343 C   0  0  0  0  0  0  0  0  0  0  0  0
   94.5514   51.9702  267.8248 C   0  0  0  0  0  0  0  0  0  0  0  0
   95.7310   53.9715  267.7910 O   0  0  0  0  0  0  0  0  0  0  0  0
   96.0567   55.2652  268.3379 C   0  0  0  0  0  0  0  0  0  0  0  0
   92.3027   46.4196  265.9491 H   0  0  0  0  0  0  0  0  0  0  0  0
   91.1885   50.2433  267.4962 H   0  0  0  0  0  0  0  0  0  0  0  0
   94.5358   49.1964  266.5254 H   0  0  0  0  0  0  0  0  0  0  0  0
   97.4922   48.1032  268.0164 H   0  0  0  0  0  0  0  0  0  0  0  0
   96.7803   45.9326  267.1326 H   0  0  0  0  0  0  0  0  0  0  0  0
   91.4101   47.5314  264.0040 H   0  0  0  0  0  0  0  0  0  0  0  0
   88.2432   45.4113  262.3141 H   0  0  0  0  0  0  0  0  0  0  0  0
   86.8865   45.6836  264.3454 H   0  0  0  0  0  0  0  0  0  0  0  0
   87.8882   45.6549  269.0417 H   0  0  0  0  0  0  0  0  0  0  0  0
   88.3474   44.6698  267.6117 H   0  0  0  0  0  0  0  0  0  0  0  0
   89.4285   45.9871  268.1795 H   0  0  0  0  0  0  0  0  0  0  0  0
   92.1102   50.8369  269.8950 H   0  0  0  0  0  0  0  0  0  0  0  0
   92.6712   52.9842  271.0280 H   0  0  0  0  0  0  0  0  0  0  0  0
   94.4609   54.4278  270.1568 H   0  0  0  0  0  0  0  0  0  0  0  0
   95.0963   51.6840  266.9373 H   0  0  0  0  0  0  0  0  0  0  0  0
   96.8012   55.7585  267.6957 H   0  0  0  0  0  0  0  0  0  0  0  0
   95.1474   55.8824  268.3857 H   0  0  0  0  0  0  0  0  0  0  0  0
   96.4697   55.1419  269.3499 H   0  0  0  0  0  0  0  0  0  0  0  0
  1  2  1  0  0  0  0
  1  5  2  0  0  0  0
  2  3  1  0  0  0  0
  2 11  2  0  0  0  0
  3  4  2  0  0  0  0
  4  6  1  0  0  0  0
  4 22  1  0  0  0  0
  5  6  1  0  0  0  0
  5 10  1  0  0  0  0
  6  7  1  0  0  0  0
  7  8  2  0  0  0  0
  8  9  1  0  0  0  0
  9 10  2  0  0  0  0
 11 12  1  0  0  0  0
 12 13  2  0  0  0  0
 12 17  1  0  0  0  0
 13 14  1  0  0  0  0
 14 15  2  0  0  0  0
 15 16  1  0  0  0  0
 16 17  2  0  0  0  0
 17 18  1  0  0  0  0
 18 19  2  0  0  0  0
 18 20  2  0  0  0  0
 18 21  1  0  0  0  0
 22 23  2  0  0  0  0
 22 27  1  0  0  0  0
 23 24  1  0  0  0  0
 24 25  2  0  0  0  0
 25 26  1  0  0  0  0
 26 27  2  0  0  0  0
 26 28  1  0  0  0  0
 28 29  1  0  0  0  0
  1 30  1  0  0  0  0
  3 31  1  0  0  0  0
  6 32  1  0  0  0  0
  8 33  1  0  0  0  0
  9 34  1  0  0  0  0
 13 35  1  0  0  0  0
 15 36  1  0  0  0  0
 16 37  1  0  0  0  0
 21 38  1  0  0  0  0
 21 39  1  0  0  0  0
 21 40  1  0  0  0  0
 23 41  1  0  0  0  0
 24 42  1  0  0  0  0
 25 43  1  0  0  0  0
 27 44  1  0  0  0  0
 29 45  1  0  0  0  0
 29 46  1  0  0  0  0
 29 47  1  0  0  0  0
M  END
> <ID>
20

> <IC50[uM]>
0.572

$$$$
20
  -OEChem-05192314313D
 Structure written by MMmdl.
 47 50  0     0  0  0  0  0  0999 V2000
   92.5739   47.3336  266.4565 C   0  0  0  0  0  0  0  0  0  0  0  0
   91.6324   48.3172  266.6741 C   0  0  0  0  0  0  0  0  0  0  0  0
   91.9632   49.5168  267.2998 C   0  0  0  0  0  0  0  0  0  0  0  0
   93.2765   49.7975  267.6776 C   0  0  0  0  0  0  0  0  0  0  0  0
   93.8958   47.5362  266.9051 C   0  0  0  0  0  0  0  0  0  0  0  0
   94.2730   48.7873  267.5121 C   0  0  0  0  0  0  0  0  0  0  0  0
   95.5665   48.9603  267.9405 N   0  0  0  0  0  0  0  0  0  0  0  0
   96.4572   47.9542  267.7463 C   0  0  0  0  0  0  0  0  0  0  0  0
   96.0617   46.7355  267.2061 C   0  0  0  0  0  0  0  0  0  0  0  0
   94.8014   46.5336  266.7720 N   0  0  0  0  0  0  0  0  0  0  0  0
   90.2859   48.1283  266.3232 N   0  0  0  0  0  0  0  0  0  0  0  0
   89.7235   47.3483  265.2931 C   0  0  0  0  0  0  0  0  0  0  0  0
   90.4123   47.1279  264.0929 C   0  0  0  0  0  0  0  0  0  0  0  0
   89.9113   46.4423  263.0351 N   0  0  0  0  0  0  0  0  0  0  0  0
   88.6625   45.9485  263.1520 C   0  0  0  0  0  0  0  0  0  0  0  0
   87.8836   46.0962  264.3010 C   0  0  0  0  0  0  0  0  0  0  0  0
   88.4186   46.7903  265.3979 C   0  0  0  0  0  0  0  0  0  0  0  0
   87.4853   46.8968  266.9278 S   0  0  0  0  0  0  0  0  0  0  0  0
   86.1266   46.3735  266.6676 O   0  0  0  0  0  0  0  0  0  0  0  0
   87.6689   48.2339  267.4731 O   0  0  0  0  0  0  0  0  0  0  0  0
   88.3809   45.6744  268.0584 C   0  0  0  0  0  0  0  0  0  0  0  0
   93.5881   51.1129  268.3403 C   0  0  0  0  0  0  0  0  0  0  0  0
   92.8836   51.4776  269.4978 C   0  0  0  0  0  0  0  0  0  0  0  0
   93.2031   52.6955  270.1335 C   0  0  0  0  0  0  0  0  0  0  0  0
   94.1885   53.5265  269.6279 C   0  0  0  0  0  0  0  0  0  0  0  0
   94.8277   53.1962  268.4343 C   0  0  0  0  0  0  0  0  0  0  0  0
   94.5514   51.9702  267.8248 C   0  0  0  0  0  0  0  0  0  0  0  0
   95.7310   53.9715  267.7910 O   0  0  0  0  0  0  0  0  0  0  0  0
   96.0567   55.2652  268.3379 C   0  0  0  0  0  0  0  0  0  0  0  0
   92.3027   46.4196  265.9491 H   0  0  0  0  0  0  0  0  0  0  0  0
   91.1885   50.2433  267.4962 H   0  0  0  0  0  0  0  0  0  0  0  0
   97.2365   48.3523  267.0799 H   0  0  0  0  0  0  0  0  0  0  0  0
   96.8951   47.7314  268.7305 H   0  0  0  0  0  0  0  0  0  0  0  0
   96.7803   45.9326  267.1326 H   0  0  0  0  0  0  0  0  0  0  0  0
   91.4101   47.5314  264.0040 H   0  0  0  0  0  0  0  0  0  0  0  0
   88.2432   45.4113  262.3141 H   0  0  0  0  0  0  0  0  0  0  0  0
   86.8865   45.6836  264.3454 H   0  0  0  0  0  0  0  0  0  0  0  0
   87.8882   45.6549  269.0417 H   0  0  0  0  0  0  0  0  0  0  0  0
   88.3474   44.6698  267.6117 H   0  0  0  0  0  0  0  0  0  0  0  0
   89.4285   45.9871  268.1795 H   0  0  0  0  0  0  0  0  0  0  0  0
   92.1102   50.8369  269.8950 H   0  0  0  0  0  0  0  0  0  0  0  0
   92.6712   52.9842  271.0280 H   0  0  0  0  0  0  0  0  0  0  0  0
   94.4609   54.4278  270.1568 H   0  0  0  0  0  0  0  0  0  0  0  0
   95.0963   51.6840  266.9373 H   0  0  0  0  0  0  0  0  0  0  0  0
   96.8012   55.7585  267.6957 H   0  0  0  0  0  0  0  0  0  0  0  0
   95.1474   55.8824  268.3857 H   0  0  0  0  0  0  0  0  0  0  0  0
   96.4697   55.1419  269.3499 H   0  0  0  0  0  0  0  0  0  0  0  0
  1  2  1  0  0  0  0
  1  5  2  0  0  0  0
  2  3  1  0  0  0  0
  2 11  2  0  0  0  0
  3  4  2  0  0  0  0
  4  6  1  0  0  0  0
  4 22  1  0  0  0  0
  5  6  1  0  0  0  0
  5 10  1  0  0  0  0
  6  7  2  0  0  0  0
  7  8  1  0  0  0  0
  8  9  1  0  0  0  0
  9 10  2  0  0  0  0
 11 12  1  0  0  0  0
 12 13  2  0  0  0  0
 12 17  1  0  0  0  0
 13 14  1  0  0  0  0
 14 15  2  0  0  0  0
 15 16  1  0  0  0  0
 16 17  2  0  0  0  0
 17 18  1  0  0  0  0
 18 19  2  0  0  0  0
 18 20  2  0  0  0  0
 18 21  1  0  0  0  0
 22 23  2  0  0  0  0
 22 27  1  0  0  0  0
 23 24  1  0  0  0  0
 24 25  2  0  0  0  0
 25 26  1  0  0  0  0
 26 27  2  0  0  0  0
 26 28  1  0  0  0  0
 28 29  1  0  0  0  0
  1 30  1  0  0  0  0
  3 31  1  0  0  0  0
  8 32  1  0  0  0  0
  8 33  1  0  0  0  0
  9 34  1  0  0  0  0
 13 35  1  0  0  0  0
 15 36  1  0  0  0  0
 16 37  1  0  0  0  0
 21 38  1  0  0  0  0
 21 39  1  0  0  0  0
 21 40  1  0  0  0  0
 23 41  1  0  0  0  0
 24 42  1  0  0  0  0
 25 43  1  0  0  0  0
 27 44  1  0  0  0  0
 29 45  1  0  0  0  0
 29 46  1  0  0  0  0
 29 47  1  0  0  0  0
M  END
> <ID>
20

> <IC50[uM]>
0.572

$$$$
