39
  -OEChem-05192314313D
 Structure written by MMmdl.
 45 48  0     0  0  0  0  0  0999 V2000
   93.2802   49.7985  267.6875 C   0  0  0  0  0  0  0  0  0  0  0  0
   92.5744   47.3376  266.4723 C   0  0  0  0  0  0  0  0  0  0  0  0
   91.6199   48.3263  266.6804 C   0  0  0  0  0  0  0  0  0  0  0  0
   91.9714   49.5220  267.2872 C   0  0  0  0  0  0  0  0  0  0  0  0
   93.9019   47.5331  266.9251 C   0  0  0  0  0  0  0  0  0  0  0  0
   94.2659   48.7775  267.5222 C   0  0  0  0  0  0  0  0  0  0  0  0
   95.5666   48.9595  267.9453 N   0  0  0  0  0  0  0  0  0  0  0  0
   96.4488   47.9549  267.7510 C   0  0  0  0  0  0  0  0  0  0  0  0
   96.0765   46.7394  267.2041 C   0  0  0  0  0  0  0  0  0  0  0  0
   94.7993   46.5295  266.7714 N   0  0  0  0  0  0  0  0  0  0  0  0
   93.5961   51.1154  268.3351 C   0  0  0  0  0  0  0  0  0  0  0  0
   94.5698   51.9449  267.8031 C   0  0  0  0  0  0  0  0  0  0  0  0
   94.8585   53.1669  268.3850 C   0  0  0  0  0  0  0  0  0  0  0  0
   94.1392   53.5776  269.5454 C   0  0  0  0  0  0  0  0  0  0  0  0
   93.2374   52.7442  270.0633 C   0  0  0  0  0  0  0  0  0  0  0  0
   92.9105   51.5224  269.5097 C   0  0  0  0  0  0  0  0  0  0  0  0
   90.2895   48.1235  266.3187 N   0  0  0  0  0  0  0  0  0  0  0  0
   89.7108   47.3399  265.2871 C   0  0  0  0  0  0  0  0  0  0  0  0
   90.4200   47.1068  264.0926 C   0  0  0  0  0  0  0  0  0  0  0  0
   89.9178   46.4353  263.0435 N   0  0  0  0  0  0  0  0  0  0  0  0
   88.6596   45.9305  263.1598 C   0  0  0  0  0  0  0  0  0  0  0  0
   87.8887   46.0861  264.3126 C   0  0  0  0  0  0  0  0  0  0  0  0
   88.4246   46.7965  265.3987 C   0  0  0  0  0  0  0  0  0  0  0  0
   87.4849   46.9002  266.9304 S   0  0  0  0  0  0  0  0  0  0  0  0
   86.1214   46.3894  266.6610 O   0  0  0  0  0  0  0  0  0  0  0  0
   87.6704   48.2235  267.4846 O   0  0  0  0  0  0  0  0  0  0  0  0
   88.3749   45.6310  268.0078 C   0  0  0  0  0  0  0  0  0  0  0  0
   92.5599   53.1152  271.2532 N   0  0  0  0  0  0  0  0  0  0  0  0
   92.3043   46.4224  265.9664 H   0  0  0  0  0  0  0  0  0  0  0  0
   91.2065   50.2655  267.4562 H   0  0  0  0  0  0  0  0  0  0  0  0
   97.4806   48.1057  268.0323 H   0  0  0  0  0  0  0  0  0  0  0  0
   96.8056   45.9472  267.1187 H   0  0  0  0  0  0  0  0  0  0  0  0
   95.1111   51.6336  266.9219 H   0  0  0  0  0  0  0  0  0  0  0  0
   95.6221   53.8039  267.9637 H   0  0  0  0  0  0  0  0  0  0  0  0
   94.3211   54.5427  269.9948 H   0  0  0  0  0  0  0  0  0  0  0  0
   92.1547   50.8942  269.9575 H   0  0  0  0  0  0  0  0  0  0  0  0
   89.6278   48.6157  266.8844 H   0  0  0  0  0  0  0  0  0  0  0  0
   91.4266   47.4906  264.0159 H   0  0  0  0  0  0  0  0  0  0  0  0
   88.2404   45.3872  262.3258 H   0  0  0  0  0  0  0  0  0  0  0  0
   86.8951   45.6665  264.3685 H   0  0  0  0  0  0  0  0  0  0  0  0
   87.8952   45.5880  268.9968 H   0  0  0  0  0  0  0  0  0  0  0  0
   88.3195   44.6416  267.5303 H   0  0  0  0  0  0  0  0  0  0  0  0
   89.4289   45.9236  268.1241 H   0  0  0  0  0  0  0  0  0  0  0  0
   91.9209   52.3912  271.5131 H   0  0  0  0  0  0  0  0  0  0  0  0
   93.2255   53.2513  271.9870 H   0  0  0  0  0  0  0  0  0  0  0  0
  1  4  2  0  0  0  0
  1  6  1  0  0  0  0
  1 11  1  0  0  0  0
  2  3  2  0  0  0  0
  2  5  1  0  0  0  0
  3  4  1  0  0  0  0
  3 17  1  0  0  0  0
  5  6  2  0  0  0  0
  5 10  1  0  0  0  0
  6  7  1  0  0  0  0
  7  8  2  0  0  0  0
  8  9  1  0  0  0  0
  9 10  2  0  0  0  0
 11 12  2  0  0  0  0
 11 16  1  0  0  0  0
 12 13  1  0  0  0  0
 13 14  2  0  0  0  0
 14 15  1  0  0  0  0
 15 16  2  0  0  0  0
 15 28  1  0  0  0  0
 17 18  1  0  0  0  0
 18 19  2  0  0  0  0
 18 23  1  0  0  0  0
 19 20  1  0  0  0  0
 20 21  2  0  0  0  0
 21 22  1  0  0  0  0
 22 23  2  0  0  0  0
 23 24  1  0  0  0  0
 24 25  2  0  0  0  0
 24 26  2  0  0  0  0
 24 27  1  0  0  0  0
  2 29  1  0  0  0  0
  4 30  1  0  0  0  0
  8 31  1  0  0  0  0
  9 32  1  0  0  0  0
 12 33  1  0  0  0  0
 13 34  1  0  0  0  0
 14 35  1  0  0  0  0
 16 36  1  0  0  0  0
 17 37  1  0  0  0  0
 19 38  1  0  0  0  0
 21 39  1  0  0  0  0
 22 40  1  0  0  0  0
 27 41  1  0  0  0  0
 27 42  1  0  0  0  0
 27 43  1  0  0  0  0
 28 44  1  0  0  0  0
 28 45  1  0  0  0  0
M  END
> <ID>
39

> <IC50[uM]>
5.299

$$$$
39
  -OEChem-05192314313D
 Structure written by MMmdl.
 45 48  0     0  0  0  0  0  0999 V2000
   93.2802   49.7985  267.6875 C   0  0  0  0  0  0  0  0  0  0  0  0
   92.5744   47.3376  266.4723 C   0  0  0  0  0  0  0  0  0  0  0  0
   91.6199   48.3263  266.6804 C   0  0  0  0  0  0  0  0  0  0  0  0
   91.9714   49.5220  267.2872 C   0  0  0  0  0  0  0  0  0  0  0  0
   93.9019   47.5331  266.9251 C   0  0  0  0  0  0  0  0  0  0  0  0
   94.2659   48.7775  267.5222 C   0  0  0  0  0  0  0  0  0  0  0  0
   95.5666   48.9595  267.9453 N   0  0  0  0  0  0  0  0  0  0  0  0
   96.4488   47.9549  267.7510 C   0  0  0  0  0  0  0  0  0  0  0  0
   96.0765   46.7394  267.2041 C   0  0  0  0  0  0  0  0  0  0  0  0
   94.7993   46.5295  266.7714 N   0  0  0  0  0  0  0  0  0  0  0  0
   93.5961   51.1154  268.3351 C   0  0  0  0  0  0  0  0  0  0  0  0
   94.5698   51.9449  267.8031 C   0  0  0  0  0  0  0  0  0  0  0  0
   94.8585   53.1669  268.3850 C   0  0  0  0  0  0  0  0  0  0  0  0
   94.1392   53.5776  269.5454 C   0  0  0  0  0  0  0  0  0  0  0  0
   93.2374   52.7442  270.0633 C   0  0  0  0  0  0  0  0  0  0  0  0
   92.9105   51.5224  269.5097 C   0  0  0  0  0  0  0  0  0  0  0  0
   90.2895   48.1235  266.3187 N   0  0  0  0  0  0  0  0  0  0  0  0
   89.7108   47.3399  265.2871 C   0  0  0  0  0  0  0  0  0  0  0  0
   90.4200   47.1068  264.0926 C   0  0  0  0  0  0  0  0  0  0  0  0
   89.9178   46.4353  263.0435 N   0  0  0  0  0  0  0  0  0  0  0  0
   88.6596   45.9305  263.1598 C   0  0  0  0  0  0  0  0  0  0  0  0
   87.8887   46.0861  264.3126 C   0  0  0  0  0  0  0  0  0  0  0  0
   88.4246   46.7965  265.3987 C   0  0  0  0  0  0  0  0  0  0  0  0
   87.4849   46.9002  266.9304 S   0  0  0  0  0  0  0  0  0  0  0  0
   86.1214   46.3894  266.6610 O   0  0  0  0  0  0  0  0  0  0  0  0
   87.6704   48.2235  267.4846 O   0  0  0  0  0  0  0  0  0  0  0  0
   88.3749   45.6310  268.0078 C   0  0  0  0  0  0  0  0  0  0  0  0
   92.5599   53.1152  271.2532 N   0  0  0  0  0  0  0  0  0  0  0  0
   92.3043   46.4224  265.9664 H   0  0  0  0  0  0  0  0  0  0  0  0
   91.2065   50.2655  267.4562 H   0  0  0  0  0  0  0  0  0  0  0  0
   97.4806   48.1057  268.0323 H   0  0  0  0  0  0  0  0  0  0  0  0
   96.8056   45.9472  267.1187 H   0  0  0  0  0  0  0  0  0  0  0  0
   94.5336   45.6608  266.3533 H   0  0  0  0  0  0  0  0  0  0  0  0
   95.1111   51.6336  266.9219 H   0  0  0  0  0  0  0  0  0  0  0  0
   95.6221   53.8039  267.9637 H   0  0  0  0  0  0  0  0  0  0  0  0
   94.3211   54.5427  269.9948 H   0  0  0  0  0  0  0  0  0  0  0  0
   92.1547   50.8942  269.9575 H   0  0  0  0  0  0  0  0  0  0  0  0
   91.4266   47.4906  264.0159 H   0  0  0  0  0  0  0  0  0  0  0  0
   88.2404   45.3872  262.3258 H   0  0  0  0  0  0  0  0  0  0  0  0
   86.8951   45.6665  264.3685 H   0  0  0  0  0  0  0  0  0  0  0  0
   87.8952   45.5880  268.9968 H   0  0  0  0  0  0  0  0  0  0  0  0
   88.3195   44.6416  267.5303 H   0  0  0  0  0  0  0  0  0  0  0  0
   89.4289   45.9236  268.1241 H   0  0  0  0  0  0  0  0  0  0  0  0
   91.9209   52.3912  271.5131 H   0  0  0  0  0  0  0  0  0  0  0  0
   93.2255   53.2513  271.9870 H   0  0  0  0  0  0  0  0  0  0  0  0
  1  4  2  0  0  0  0
  1  6  1  0  0  0  0
  1 11  1  0  0  0  0
  2  3  1  0  0  0  0
  2  5  2  0  0  0  0
  3  4  1  0  0  0  0
  3 17  2  0  0  0  0
  5  6  1  0  0  0  0
  5 10  1  0  0  0  0
  6  7  2  0  0  0  0
  7  8  1  0  0  0  0
  8  9  2  0  0  0  0
  9 10  1  0  0  0  0
 11 12  2  0  0  0  0
 11 16  1  0  0  0  0
 12 13  1  0  0  0  0
 13 14  2  0  0  0  0
 14 15  1  0  0  0  0
 15 16  2  0  0  0  0
 15 28  1  0  0  0  0
 17 18  1  0  0  0  0
 18 19  2  0  0  0  0
 18 23  1  0  0  0  0
 19 20  1  0  0  0  0
 20 21  2  0  0  0  0
 21 22  1  0  0  0  0
 22 23  2  0  0  0  0
 23 24  1  0  0  0  0
 24 25  2  0  0  0  0
 24 26  2  0  0  0  0
 24 27  1  0  0  0  0
  2 29  1  0  0  0  0
  4 30  1  0  0  0  0
  8 31  1  0  0  0  0
  9 32  1  0  0  0  0
 10 33  1  0  0  0  0
 12 34  1  0  0  0  0
 13 35  1  0  0  0  0
 14 36  1  0  0  0  0
 16 37  1  0  0  0  0
 19 38  1  0  0  0  0
 21 39  1  0  0  0  0
 22 40  1  0  0  0  0
 27 41  1  0  0  0  0
 27 42  1  0  0  0  0
 27 43  1  0  0  0  0
 28 44  1  0  0  0  0
 28 45  1  0  0  0  0
M  END
> <ID>
39

> <IC50[uM]>
5.299

$$$$
39
  -OEChem-05192314313D
 Structure written by MMmdl.
 45 48  0     0  0  0  0  0  0999 V2000
   93.2802   49.7985  267.6875 C   0  0  0  0  0  0  0  0  0  0  0  0
   92.5744   47.3376  266.4723 C   0  0  0  0  0  0  0  0  0  0  0  0
   91.6199   48.3263  266.6804 C   0  0  0  0  0  0  0  0  0  0  0  0
   91.9714   49.5220  267.2872 C   0  0  0  0  0  0  0  0  0  0  0  0
   93.9019   47.5331  266.9251 C   0  0  0  0  0  0  0  0  0  0  0  0
   94.2659   48.7775  267.5222 C   0  0  0  0  0  0  0  0  0  0  0  0
   95.5666   48.9595  267.9453 N   0  0  0  0  0  0  0  0  0  0  0  0
   96.4488   47.9549  267.7510 C   0  0  0  0  0  0  0  0  0  0  0  0
   96.0765   46.7394  267.2041 C   0  0  0  0  0  0  0  0  0  0  0  0
   94.7993   46.5295  266.7714 N   0  0  0  0  0  0  0  0  0  0  0  0
   93.5961   51.1154  268.3351 C   0  0  0  0  0  0  0  0  0  0  0  0
   94.5698   51.9449  267.8031 C   0  0  0  0  0  0  0  0  0  0  0  0
   94.8585   53.1669  268.3850 C   0  0  0  0  0  0  0  0  0  0  0  0
   94.1392   53.5776  269.5454 C   0  0  0  0  0  0  0  0  0  0  0  0
   93.2374   52.7442  270.0633 C   0  0  0  0  0  0  0  0  0  0  0  0
   92.9105   51.5224  269.5097 C   0  0  0  0  0  0  0  0  0  0  0  0
   90.2895   48.1235  266.3187 N   0  0  0  0  0  0  0  0  0  0  0  0
   89.7108   47.3399  265.2871 C   0  0  0  0  0  0  0  0  0  0  0  0
   90.4200   47.1068  264.0926 C   0  0  0  0  0  0  0  0  0  0  0  0
   89.9178   46.4353  263.0435 N   0  0  0  0  0  0  0  0  0  0  0  0
   88.6596   45.9305  263.1598 C   0  0  0  0  0  0  0  0  0  0  0  0
   87.8887   46.0861  264.3126 C   0  0  0  0  0  0  0  0  0  0  0  0
   88.4246   46.7965  265.3987 C   0  0  0  0  0  0  0  0  0  0  0  0
   87.4849   46.9002  266.9304 S   0  0  0  0  0  0  0  0  0  0  0  0
   86.1214   46.3894  266.6610 O   0  0  0  0  0  0  0  0  0  0  0  0
   87.6704   48.2235  267.4846 O   0  0  0  0  0  0  0  0  0  0  0  0
   88.3749   45.6310  268.0078 C   0  0  0  0  0  0  0  0  0  0  0  0
   92.5599   53.1152  271.2532 N   0  0  0  0  0  0  0  0  0  0  0  0
   92.2015   46.4267  266.9634 H   0  0  0  0  0  0  0  0  0  0  0  0
   92.6297   47.1721  265.3862 H   0  0  0  0  0  0  0  0  0  0  0  0
   91.2065   50.2655  267.4562 H   0  0  0  0  0  0  0  0  0  0  0  0
   97.4806   48.1057  268.0323 H   0  0  0  0  0  0  0  0  0  0  0  0
   96.8056   45.9472  267.1187 H   0  0  0  0  0  0  0  0  0  0  0  0
   95.1111   51.6336  266.9219 H   0  0  0  0  0  0  0  0  0  0  0  0
   95.6221   53.8039  267.9637 H   0  0  0  0  0  0  0  0  0  0  0  0
   94.3211   54.5427  269.9948 H   0  0  0  0  0  0  0  0  0  0  0  0
   92.1547   50.8942  269.9575 H   0  0  0  0  0  0  0  0  0  0  0  0
   91.4266   47.4906  264.0159 H   0  0  0  0  0  0  0  0  0  0  0  0
   88.2404   45.3872  262.3258 H   0  0  0  0  0  0  0  0  0  0  0  0
   86.8951   45.6665  264.3685 H   0  0  0  0  0  0  0  0  0  0  0  0
   87.8952   45.5880  268.9968 H   0  0  0  0  0  0  0  0  0  0  0  0
   88.3195   44.6416  267.5303 H   0  0  0  0  0  0  0  0  0  0  0  0
   89.4289   45.9236  268.1241 H   0  0  0  0  0  0  0  0  0  0  0  0
   91.9209   52.3912  271.5131 H   0  0  0  0  0  0  0  0  0  0  0  0
   93.2255   53.2513  271.9870 H   0  0  0  0  0  0  0  0  0  0  0  0
  1  4  2  0  0  0  0
  1  6  1  0  0  0  0
  1 11  1  0  0  0  0
  2  3  1  0  0  0  0
  2  5  1  0  0  0  0
  3  4  1  0  0  0  0
  3 17  2  0  0  0  0
  5  6  2  0  0  0  0
  5 10  1  0  0  0  0
  6  7  1  0  0  0  0
  7  8  2  0  0  0  0
  8  9  1  0  0  0  0
  9 10  2  0  0  0  0
 11 12  2  0  0  0  0
 11 16  1  0  0  0  0
 12 13  1  0  0  0  0
 13 14  2  0  0  0  0
 14 15  1  0  0  0  0
 15 16  2  0  0  0  0
 15 28  1  0  0  0  0
 17 18  1  0  0  0  0
 18 19  2  0  0  0  0
 18 23  1  0  0  0  0
 19 20  1  0  0  0  0
 20 21  2  0  0  0  0
 21 22  1  0  0  0  0
 22 23  2  0  0  0  0
 23 24  1  0  0  0  0
 24 25  2  0  0  0  0
 24 26  2  0  0  0  0
 24 27  1  0  0  0  0
  2 29  1  0  0  0  0
  2 30  1  0  0  0  0
  4 31  1  0  0  0  0
  8 32  1  0  0  0  0
  9 33  1  0  0  0  0
 12 34  1  0  0  0  0
 13 35  1  0  0  0  0
 14 36  1  0  0  0  0
 16 37  1  0  0  0  0
 19 38  1  0  0  0  0
 21 39  1  0  0  0  0
 22 40  1  0  0  0  0
 27 41  1  0  0  0  0
 27 42  1  0  0  0  0
 27 43  1  0  0  0  0
 28 44  1  0  0  0  0
 28 45  1  0  0  0  0
M  END
> <ID>
39

> <IC50[uM]>
5.299

$$$$
39
  -OEChem-05192314313D
 Structure written by MMmdl.
 45 48  0     0  0  0  0  0  0999 V2000
   93.2802   49.7985  267.6875 C   0  0  0  0  0  0  0  0  0  0  0  0
   92.5744   47.3376  266.4723 C   0  0  0  0  0  0  0  0  0  0  0  0
   91.6199   48.3263  266.6804 C   0  0  0  0  0  0  0  0  0  0  0  0
   91.9714   49.5220  267.2872 C   0  0  0  0  0  0  0  0  0  0  0  0
   93.9019   47.5331  266.9251 C   0  0  0  0  0  0  0  0  0  0  0  0
   94.2659   48.7775  267.5222 C   0  0  0  0  0  0  0  0  0  0  0  0
   95.5666   48.9595  267.9453 N   0  0  0  0  0  0  0  0  0  0  0  0
   96.4488   47.9549  267.7510 C   0  0  0  0  0  0  0  0  0  0  0  0
   96.0765   46.7394  267.2041 C   0  0  0  0  0  0  0  0  0  0  0  0
   94.7993   46.5295  266.7714 N   0  0  0  0  0  0  0  0  0  0  0  0
   93.5961   51.1154  268.3351 C   0  0  0  0  0  0  0  0  0  0  0  0
   94.5698   51.9449  267.8031 C   0  0  0  0  0  0  0  0  0  0  0  0
   94.8585   53.1669  268.3850 C   0  0  0  0  0  0  0  0  0  0  0  0
   94.1392   53.5776  269.5454 C   0  0  0  0  0  0  0  0  0  0  0  0
   93.2374   52.7442  270.0633 C   0  0  0  0  0  0  0  0  0  0  0  0
   92.9105   51.5224  269.5097 C   0  0  0  0  0  0  0  0  0  0  0  0
   90.2895   48.1235  266.3187 N   0  0  0  0  0  0  0  0  0  0  0  0
   89.7108   47.3399  265.2871 C   0  0  0  0  0  0  0  0  0  0  0  0
   90.4200   47.1068  264.0926 C   0  0  0  0  0  0  0  0  0  0  0  0
   89.9178   46.4353  263.0435 N   0  0  0  0  0  0  0  0  0  0  0  0
   88.6596   45.9305  263.1598 C   0  0  0  0  0  0  0  0  0  0  0  0
   87.8887   46.0861  264.3126 C   0  0  0  0  0  0  0  0  0  0  0  0
   88.4246   46.7965  265.3987 C   0  0  0  0  0  0  0  0  0  0  0  0
   87.4849   46.9002  266.9304 S   0  0  0  0  0  0  0  0  0  0  0  0
   86.1214   46.3894  266.6610 O   0  0  0  0  0  0  0  0  0  0  0  0
   87.6704   48.2235  267.4846 O   0  0  0  0  0  0  0  0  0  0  0  0
   88.3749   45.6310  268.0078 C   0  0  0  0  0  0  0  0  0  0  0  0
   92.5599   53.1152  271.2532 N   0  0  0  0  0  0  0  0  0  0  0  0
   92.3043   46.4224  265.9664 H   0  0  0  0  0  0  0  0  0  0  0  0
   91.3510   49.6005  268.1921 H   0  0  0  0  0  0  0  0  0  0  0  0
   91.6922   50.3178  266.5810 H   0  0  0  0  0  0  0  0  0  0  0  0
   97.4806   48.1057  268.0323 H   0  0  0  0  0  0  0  0  0  0  0  0
   96.8056   45.9472  267.1187 H   0  0  0  0  0  0  0  0  0  0  0  0
   95.1111   51.6336  266.9219 H   0  0  0  0  0  0  0  0  0  0  0  0
   95.6221   53.8039  267.9637 H   0  0  0  0  0  0  0  0  0  0  0  0
   94.3211   54.5427  269.9948 H   0  0  0  0  0  0  0  0  0  0  0  0
   92.1547   50.8942  269.9575 H   0  0  0  0  0  0  0  0  0  0  0  0
   91.4266   47.4906  264.0159 H   0  0  0  0  0  0  0  0  0  0  0  0
   88.2404   45.3872  262.3258 H   0  0  0  0  0  0  0  0  0  0  0  0
   86.8951   45.6665  264.3685 H   0  0  0  0  0  0  0  0  0  0  0  0
   87.8952   45.5880  268.9968 H   0  0  0  0  0  0  0  0  0  0  0  0
   88.3195   44.6416  267.5303 H   0  0  0  0  0  0  0  0  0  0  0  0
   89.4289   45.9236  268.1241 H   0  0  0  0  0  0  0  0  0  0  0  0
   91.9209   52.3912  271.5131 H   0  0  0  0  0  0  0  0  0  0  0  0
   93.2255   53.2513  271.9870 H   0  0  0  0  0  0  0  0  0  0  0  0
  1  4  1  0  0  0  0
  1  6  2  0  0  0  0
  1 11  1  0  0  0  0
  2  3  1  0  0  0  0
  2  5  2  0  0  0  0
  3  4  1  0  0  0  0
  3 17  2  0  0  0  0
  5  6  1  0  0  0  0
  5 10  1  0  0  0  0
  6  7  1  0  0  0  0
  7  8  2  0  0  0  0
  8  9  1  0  0  0  0
  9 10  2  0  0  0  0
 11 12  2  0  0  0  0
 11 16  1  0  0  0  0
 12 13  1  0  0  0  0
 13 14  2  0  0  0  0
 14 15  1  0  0  0  0
 15 16  2  0  0  0  0
 15 28  1  0  0  0  0
 17 18  1  0  0  0  0
 18 19  2  0  0  0  0
 18 23  1  0  0  0  0
 19 20  1  0  0  0  0
 20 21  2  0  0  0  0
 21 22  1  0  0  0  0
 22 23  2  0  0  0  0
 23 24  1  0  0  0  0
 24 25  2  0  0  0  0
 24 26  2  0  0  0  0
 24 27  1  0  0  0  0
  2 29  1  0  0  0  0
  4 30  1  0  0  0  0
  4 31  1  0  0  0  0
  8 32  1  0  0  0  0
  9 33  1  0  0  0  0
 12 34  1  0  0  0  0
 13 35  1  0  0  0  0
 14 36  1  0  0  0  0
 16 37  1  0  0  0  0
 19 38  1  0  0  0  0
 21 39  1  0  0  0  0
 22 40  1  0  0  0  0
 27 41  1  0  0  0  0
 27 42  1  0  0  0  0
 27 43  1  0  0  0  0
 28 44  1  0  0  0  0
 28 45  1  0  0  0  0
M  END
> <ID>
39

> <IC50[uM]>
5.299

$$$$
39
  -OEChem-05192314313D
 Structure written by MMmdl.
 45 48  0     1  0  0  0  0  0999 V2000
   93.2802   49.7985  267.6875 C   0  0  0  0  0  0  0  0  0  0  0  0
   92.5744   47.3376  266.4723 C   0  0  0  0  0  0  0  0  0  0  0  0
   91.6199   48.3263  266.6804 C   0  0  0  0  0  0  0  0  0  0  0  0
   91.9714   49.5220  267.2872 C   0  0  0  0  0  0  0  0  0  0  0  0
   93.9019   47.5331  266.9251 C   0  0  0  0  0  0  0  0  0  0  0  0
   94.2659   48.7775  267.5222 C   0  0  0  0  0  0  0  0  0  0  0  0
   95.5666   48.9595  267.9453 N   0  0  0  0  0  0  0  0  0  0  0  0
   96.4488   47.9549  267.7510 C   0  0  0  0  0  0  0  0  0  0  0  0
   96.0765   46.7394  267.2041 C   0  0  0  0  0  0  0  0  0  0  0  0
   94.7993   46.5295  266.7714 N   0  0  0  0  0  0  0  0  0  0  0  0
   93.5961   51.1154  268.3351 C   0  0  0  0  0  0  0  0  0  0  0  0
   94.5698   51.9449  267.8031 C   0  0  0  0  0  0  0  0  0  0  0  0
   94.8585   53.1669  268.3850 C   0  0  0  0  0  0  0  0  0  0  0  0
   94.1392   53.5776  269.5454 C   0  0  0  0  0  0  0  0  0  0  0  0
   93.2374   52.7442  270.0633 C   0  0  0  0  0  0  0  0  0  0  0  0
   92.9105   51.5224  269.5097 C   0  0  0  0  0  0  0  0  0  0  0  0
   90.2895   48.1235  266.3187 N   0  0  0  0  0  0  0  0  0  0  0  0
   89.7108   47.3399  265.2871 C   0  0  0  0  0  0  0  0  0  0  0  0
   90.4200   47.1068  264.0926 C   0  0  0  0  0  0  0  0  0  0  0  0
   89.9178   46.4353  263.0435 N   0  0  0  0  0  0  0  0  0  0  0  0
   88.6596   45.9305  263.1598 C   0  0  0  0  0  0  0  0  0  0  0  0
   87.8887   46.0861  264.3126 C   0  0  0  0  0  0  0  0  0  0  0  0
   88.4246   46.7965  265.3987 C   0  0  3  0  0  0  0  0  0  0  0  0
   87.4849   46.9002  266.9304 S   0  0  0  0  0  0  0  0  0  0  0  0
   86.1214   46.3894  266.6610 O   0  0  0  0  0  0  0  0  0  0  0  0
   87.6704   48.2235  267.4846 O   0  0  0  0  0  0  0  0  0  0  0  0
   88.3749   45.6310  268.0078 C   0  0  0  0  0  0  0  0  0  0  0  0
   92.5599   53.1152  271.2532 N   0  0  0  0  0  0  0  0  0  0  0  0
   92.3043   46.4224  265.9664 H   0  0  0  0  0  0  0  0  0  0  0  0
   91.2065   50.2655  267.4562 H   0  0  0  0  0  0  0  0  0  0  0  0
   97.4806   48.1057  268.0323 H   0  0  0  0  0  0  0  0  0  0  0  0
   96.8056   45.9472  267.1187 H   0  0  0  0  0  0  0  0  0  0  0  0
   95.1111   51.6336  266.9219 H   0  0  0  0  0  0  0  0  0  0  0  0
   95.6221   53.8039  267.9637 H   0  0  0  0  0  0  0  0  0  0  0  0
   94.3211   54.5427  269.9948 H   0  0  0  0  0  0  0  0  0  0  0  0
   92.1547   50.8942  269.9575 H   0  0  0  0  0  0  0  0  0  0  0  0
   91.4266   47.4906  264.0159 H   0  0  0  0  0  0  0  0  0  0  0  0
   88.2404   45.3872  262.3258 H   0  0  0  0  0  0  0  0  0  0  0  0
   86.8951   45.6665  264.3685 H   0  0  0  0  0  0  0  0  0  0  0  0
   87.9734   47.7326  265.0380 H   0  0  0  0  0  0  0  0  0  0  0  0
   87.8952   45.5880  268.9968 H   0  0  0  0  0  0  0  0  0  0  0  0
   88.3195   44.6416  267.5303 H   0  0  0  0  0  0  0  0  0  0  0  0
   89.4289   45.9236  268.1241 H   0  0  0  0  0  0  0  0  0  0  0  0
   91.9209   52.3912  271.5131 H   0  0  0  0  0  0  0  0  0  0  0  0
   93.2255   53.2513  271.9870 H   0  0  0  0  0  0  0  0  0  0  0  0
  1  4  2  0  0  0  0
  1  6  1  0  0  0  0
  1 11  1  0  0  0  0
  2  3  2  0  0  0  0
  2  5  1  0  0  0  0
  3  4  1  0  0  0  0
  3 17  1  0  0  0  0
  5  6  2  0  0  0  0
  5 10  1  0  0  0  0
  6  7  1  0  0  0  0
  7  8  2  0  0  0  0
  8  9  1  0  0  0  0
  9 10  2  0  0  0  0
 11 12  2  0  0  0  0
 11 16  1  0  0  0  0
 12 13  1  0  0  0  0
 13 14  2  0  0  0  0
 14 15  1  0  0  0  0
 15 16  2  0  0  0  0
 15 28  1  0  0  0  0
 17 18  2  0  0  0  0
 18 19  1  0  0  0  0
 18 23  1  0  0  0  0
 19 20  2  0  0  0  0
 20 21  1  0  0  0  0
 21 22  2  0  0  0  0
 22 23  1  0  0  0  0
 23 24  1  0  0  0  0
 24 25  2  0  0  0  0
 24 26  2  0  0  0  0
 24 27  1  0  0  0  0
  2 29  1  0  0  0  0
  4 30  1  0  0  0  0
  8 31  1  0  0  0  0
  9 32  1  0  0  0  0
 12 33  1  0  0  0  0
 13 34  1  0  0  0  0
 14 35  1  0  0  0  0
 16 36  1  0  0  0  0
 19 37  1  0  0  0  0
 21 38  1  0  0  0  0
 22 39  1  0  0  0  0
 23 40  1  0  0  0  0
 27 41  1  0  0  0  0
 27 42  1  0  0  0  0
 27 43  1  0  0  0  0
 28 44  1  0  0  0  0
 28 45  1  0  0  0  0
M  END
> <ID>
39

> <IC50[uM]>
5.299

$$$$
39
  -OEChem-05192314313D
 Structure written by MMmdl.
 45 48  0     0  0  0  0  0  0999 V2000
   93.2802   49.7985  267.6875 C   0  0  0  0  0  0  0  0  0  0  0  0
   92.5744   47.3376  266.4723 C   0  0  0  0  0  0  0  0  0  0  0  0
   91.6199   48.3263  266.6804 C   0  0  0  0  0  0  0  0  0  0  0  0
   91.9714   49.5220  267.2872 C   0  0  0  0  0  0  0  0  0  0  0  0
   93.9019   47.5331  266.9251 C   0  0  0  0  0  0  0  0  0  0  0  0
   94.2659   48.7775  267.5222 C   0  0  0  0  0  0  0  0  0  0  0  0
   95.5666   48.9595  267.9453 N   0  0  0  0  0  0  0  0  0  0  0  0
   96.4488   47.9549  267.7510 C   0  0  0  0  0  0  0  0  0  0  0  0
   96.0765   46.7394  267.2041 C   0  0  0  0  0  0  0  0  0  0  0  0
   94.7993   46.5295  266.7714 N   0  0  0  0  0  0  0  0  0  0  0  0
   93.5961   51.1154  268.3351 C   0  0  0  0  0  0  0  0  0  0  0  0
   94.5698   51.9449  267.8031 C   0  0  0  0  0  0  0  0  0  0  0  0
   94.8585   53.1669  268.3850 C   0  0  0  0  0  0  0  0  0  0  0  0
   94.1392   53.5776  269.5454 C   0  0  0  0  0  0  0  0  0  0  0  0
   93.2374   52.7442  270.0633 C   0  0  0  0  0  0  0  0  0  0  0  0
   92.9105   51.5224  269.5097 C   0  0  0  0  0  0  0  0  0  0  0  0
   90.2895   48.1235  266.3187 N   0  0  0  0  0  0  0  0  0  0  0  0
   89.7108   47.3399  265.2871 C   0  0  0  0  0  0  0  0  0  0  0  0
   90.4200   47.1068  264.0926 C   0  0  0  0  0  0  0  0  0  0  0  0
   89.9178   46.4353  263.0435 N   0  0  0  0  0  0  0  0  0  0  0  0
   88.6596   45.9305  263.1598 C   0  0  0  0  0  0  0  0  0  0  0  0
   87.8887   46.0861  264.3126 C   0  0  0  0  0  0  0  0  0  0  0  0
   88.4246   46.7965  265.3987 C   0  0  0  0  0  0  0  0  0  0  0  0
   87.4849   46.9002  266.9304 S   0  0  0  0  0  0  0  0  0  0  0  0
   86.1214   46.3894  266.6610 O   0  0  0  0  0  0  0  0  0  0  0  0
   87.6704   48.2235  267.4846 O   0  0  0  0  0  0  0  0  0  0  0  0
   88.3749   45.6310  268.0078 C   0  0  0  0  0  0  0  0  0  0  0  0
   92.5599   53.1152  271.2532 N   0  0  0  0  0  0  0  0  0  0  0  0
   92.3043   46.4224  265.9664 H   0  0  0  0  0  0  0  0  0  0  0  0
   91.2065   50.2655  267.4562 H   0  0  0  0  0  0  0  0  0  0  0  0
   97.4806   48.1057  268.0323 H   0  0  0  0  0  0  0  0  0  0  0  0
   96.8056   45.9472  267.1187 H   0  0  0  0  0  0  0  0  0  0  0  0
   95.1111   51.6336  266.9219 H   0  0  0  0  0  0  0  0  0  0  0  0
   95.6221   53.8039  267.9637 H   0  0  0  0  0  0  0  0  0  0  0  0
   94.3211   54.5427  269.9948 H   0  0  0  0  0  0  0  0  0  0  0  0
   92.1547   50.8942  269.9575 H   0  0  0  0  0  0  0  0  0  0  0  0
   91.4266   47.4906  264.0159 H   0  0  0  0  0  0  0  0  0  0  0  0
   88.0759   46.3758  262.3407 H   0  0  0  0  0  0  0  0  0  0  0  0
   88.7503   44.8462  262.9981 H   0  0  0  0  0  0  0  0  0  0  0  0
   86.8951   45.6665  264.3685 H   0  0  0  0  0  0  0  0  0  0  0  0
   87.8952   45.5880  268.9968 H   0  0  0  0  0  0  0  0  0  0  0  0
   88.3195   44.6416  267.5303 H   0  0  0  0  0  0  0  0  0  0  0  0
   89.4289   45.9236  268.1241 H   0  0  0  0  0  0  0  0  0  0  0  0
   91.9209   52.3912  271.5131 H   0  0  0  0  0  0  0  0  0  0  0  0
   93.2255   53.2513  271.9870 H   0  0  0  0  0  0  0  0  0  0  0  0
  1  4  2  0  0  0  0
  1  6  1  0  0  0  0
  1 11  1  0  0  0  0
  2  3  2  0  0  0  0
  2  5  1  0  0  0  0
  3  4  1  0  0  0  0
  3 17  1  0  0  0  0
  5  6  2  0  0  0  0
  5 10  1  0  0  0  0
  6  7  1  0  0  0  0
  7  8  2  0  0  0  0
  8  9  1  0  0  0  0
  9 10  2  0  0  0  0
 11 12  2  0  0  0  0
 11 16  1  0  0  0  0
 12 13  1  0  0  0  0
 13 14  2  0  0  0  0
 14 15  1  0  0  0  0
 15 16  2  0  0  0  0
 15 28  1  0  0  0  0
 17 18  2  0  0  0  0
 18 19  1  0  0  0  0
 18 23  1  0  0  0  0
 19 20  2  0  0  0  0
 20 21  1  0  0  0  0
 21 22  1  0  0  0  0
 22 23  2  0  0  0  0
 23 24  1  0  0  0  0
 24 25  2  0  0  0  0
 24 26  2  0  0  0  0
 24 27  1  0  0  0  0
  2 29  1  0  0  0  0
  4 30  1  0  0  0  0
  8 31  1  0  0  0  0
  9 32  1  0  0  0  0
 12 33  1  0  0  0  0
 13 34  1  0  0  0  0
 14 35  1  0  0  0  0
 16 36  1  0  0  0  0
 19 37  1  0  0  0  0
 21 38  1  0  0  0  0
 21 39  1  0  0  0  0
 22 40  1  0  0  0  0
 27 41  1  0  0  0  0
 27 42  1  0  0  0  0
 27 43  1  0  0  0  0
 28 44  1  0  0  0  0
 28 45  1  0  0  0  0
M  END
> <ID>
39

> <IC50[uM]>
5.299

$$$$
39
  -OEChem-05192314313D
 Structure written by MMmdl.
 45 48  0     0  0  0  0  0  0999 V2000
   93.2802   49.7985  267.6875 C   0  0  0  0  0  0  0  0  0  0  0  0
   92.5744   47.3376  266.4723 C   0  0  0  0  0  0  0  0  0  0  0  0
   91.6199   48.3263  266.6804 C   0  0  0  0  0  0  0  0  0  0  0  0
   91.9714   49.5220  267.2872 C   0  0  0  0  0  0  0  0  0  0  0  0
   93.9019   47.5331  266.9251 C   0  0  0  0  0  0  0  0  0  0  0  0
   94.2659   48.7775  267.5222 C   0  0  0  0  0  0  0  0  0  0  0  0
   95.5666   48.9595  267.9453 N   0  0  0  0  0  0  0  0  0  0  0  0
   96.4488   47.9549  267.7510 C   0  0  0  0  0  0  0  0  0  0  0  0
   96.0765   46.7394  267.2041 C   0  0  0  0  0  0  0  0  0  0  0  0
   94.7993   46.5295  266.7714 N   0  0  0  0  0  0  0  0  0  0  0  0
   93.5961   51.1154  268.3351 C   0  0  0  0  0  0  0  0  0  0  0  0
   94.5698   51.9449  267.8031 C   0  0  0  0  0  0  0  0  0  0  0  0
   94.8585   53.1669  268.3850 C   0  0  0  0  0  0  0  0  0  0  0  0
   94.1392   53.5776  269.5454 C   0  0  0  0  0  0  0  0  0  0  0  0
   93.2374   52.7442  270.0633 C   0  0  0  0  0  0  0  0  0  0  0  0
   92.9105   51.5224  269.5097 C   0  0  0  0  0  0  0  0  0  0  0  0
   90.2895   48.1235  266.3187 N   0  0  0  0  0  0  0  0  0  0  0  0
   89.7108   47.3399  265.2871 C   0  0  0  0  0  0  0  0  0  0  0  0
   90.4200   47.1068  264.0926 C   0  0  0  0  0  0  0  0  0  0  0  0
   89.9178   46.4353  263.0435 N   0  0  0  0  0  0  0  0  0  0  0  0
   88.6596   45.9305  263.1598 C   0  0  0  0  0  0  0  0  0  0  0  0
   87.8887   46.0861  264.3126 C   0  0  0  0  0  0  0  0  0  0  0  0
   88.4246   46.7965  265.3987 C   0  0  0  0  0  0  0  0  0  0  0  0
   87.4849   46.9002  266.9304 S   0  0  0  0  0  0  0  0  0  0  0  0
   86.1214   46.3894  266.6610 O   0  0  0  0  0  0  0  0  0  0  0  0
   87.6704   48.2235  267.4846 O   0  0  0  0  0  0  0  0  0  0  0  0
   88.3749   45.6310  268.0078 C   0  0  0  0  0  0  0  0  0  0  0  0
   92.5599   53.1152  271.2532 N   0  0  0  0  0  0  0  0  0  0  0  0
   92.3043   46.4224  265.9664 H   0  0  0  0  0  0  0  0  0  0  0  0
   91.2065   50.2655  267.4562 H   0  0  0  0  0  0  0  0  0  0  0  0
   97.4806   48.1057  268.0323 H   0  0  0  0  0  0  0  0  0  0  0  0
   96.8056   45.9472  267.1187 H   0  0  0  0  0  0  0  0  0  0  0  0
   95.1111   51.6336  266.9219 H   0  0  0  0  0  0  0  0  0  0  0  0
   95.6221   53.8039  267.9637 H   0  0  0  0  0  0  0  0  0  0  0  0
   94.3211   54.5427  269.9948 H   0  0  0  0  0  0  0  0  0  0  0  0
   92.1547   50.8942  269.9575 H   0  0  0  0  0  0  0  0  0  0  0  0
   90.6932   48.1006  263.7083 H   0  0  0  0  0  0  0  0  0  0  0  0
   91.3306   46.5643  264.3866 H   0  0  0  0  0  0  0  0  0  0  0  0
   88.2404   45.3872  262.3258 H   0  0  0  0  0  0  0  0  0  0  0  0
   86.8951   45.6665  264.3685 H   0  0  0  0  0  0  0  0  0  0  0  0
   87.8952   45.5880  268.9968 H   0  0  0  0  0  0  0  0  0  0  0  0
   88.3195   44.6416  267.5303 H   0  0  0  0  0  0  0  0  0  0  0  0
   89.4289   45.9236  268.1241 H   0  0  0  0  0  0  0  0  0  0  0  0
   91.9209   52.3912  271.5131 H   0  0  0  0  0  0  0  0  0  0  0  0
   93.2255   53.2513  271.9870 H   0  0  0  0  0  0  0  0  0  0  0  0
  1  4  2  0  0  0  0
  1  6  1  0  0  0  0
  1 11  1  0  0  0  0
  2  3  2  0  0  0  0
  2  5  1  0  0  0  0
  3  4  1  0  0  0  0
  3 17  1  0  0  0  0
  5  6  2  0  0  0  0
  5 10  1  0  0  0  0
  6  7  1  0  0  0  0
  7  8  2  0  0  0  0
  8  9  1  0  0  0  0
  9 10  2  0  0  0  0
 11 12  2  0  0  0  0
 11 16  1  0  0  0  0
 12 13  1  0  0  0  0
 13 14  2  0  0  0  0
 14 15  1  0  0  0  0
 15 16  2  0  0  0  0
 15 28  1  0  0  0  0
 17 18  2  0  0  0  0
 18 19  1  0  0  0  0
 18 23  1  0  0  0  0
 19 20  1  0  0  0  0
 20 21  2  0  0  0  0
 21 22  1  0  0  0  0
 22 23  2  0  0  0  0
 23 24  1  0  0  0  0
 24 25  2  0  0  0  0
 24 26  2  0  0  0  0
 24 27  1  0  0  0  0
  2 29  1  0  0  0  0
  4 30  1  0  0  0  0
  8 31  1  0  0  0  0
  9 32  1  0  0  0  0
 12 33  1  0  0  0  0
 13 34  1  0  0  0  0
 14 35  1  0  0  0  0
 16 36  1  0  0  0  0
 19 37  1  0  0  0  0
 19 38  1  0  0  0  0
 21 39  1  0  0  0  0
 22 40  1  0  0  0  0
 27 41  1  0  0  0  0
 27 42  1  0  0  0  0
 27 43  1  0  0  0  0
 28 44  1  0  0  0  0
 28 45  1  0  0  0  0
M  END
> <ID>
39

> <IC50[uM]>
5.299

$$$$
39
  -OEChem-05192314313D
 Structure written by MMmdl.
 45 48  0     0  0  0  0  0  0999 V2000
   93.2802   49.7985  267.6875 C   0  0  0  0  0  0  0  0  0  0  0  0
   92.5744   47.3376  266.4723 C   0  0  0  0  0  0  0  0  0  0  0  0
   91.6199   48.3263  266.6804 C   0  0  0  0  0  0  0  0  0  0  0  0
   91.9714   49.5220  267.2872 C   0  0  0  0  0  0  0  0  0  0  0  0
   93.9019   47.5331  266.9251 C   0  0  0  0  0  0  0  0  0  0  0  0
   94.2659   48.7775  267.5222 C   0  0  0  0  0  0  0  0  0  0  0  0
   95.5666   48.9595  267.9453 N   0  0  0  0  0  0  0  0  0  0  0  0
   96.4488   47.9549  267.7510 C   0  0  0  0  0  0  0  0  0  0  0  0
   96.0765   46.7394  267.2041 C   0  0  0  0  0  0  0  0  0  0  0  0
   94.7993   46.5295  266.7714 N   0  0  0  0  0  0  0  0  0  0  0  0
   93.5961   51.1154  268.3351 C   0  0  0  0  0  0  0  0  0  0  0  0
   94.5698   51.9449  267.8031 C   0  0  0  0  0  0  0  0  0  0  0  0
   94.8585   53.1669  268.3850 C   0  0  0  0  0  0  0  0  0  0  0  0
   94.1392   53.5776  269.5454 C   0  0  0  0  0  0  0  0  0  0  0  0
   93.2374   52.7442  270.0633 C   0  0  0  0  0  0  0  0  0  0  0  0
   92.9105   51.5224  269.5097 C   0  0  0  0  0  0  0  0  0  0  0  0
   90.2895   48.1235  266.3187 N   0  0  0  0  0  0  0  0  0  0  0  0
   89.7108   47.3399  265.2871 C   0  0  0  0  0  0  0  0  0  0  0  0
   90.4200   47.1068  264.0926 C   0  0  0  0  0  0  0  0  0  0  0  0
   89.9178   46.4353  263.0435 N   0  0  0  0  0  0  0  0  0  0  0  0
   88.6596   45.9305  263.1598 C   0  0  0  0  0  0  0  0  0  0  0  0
   87.8887   46.0861  264.3126 C   0  0  0  0  0  0  0  0  0  0  0  0
   88.4246   46.7965  265.3987 C   0  0  0  0  0  0  0  0  0  0  0  0
   87.4849   46.9002  266.9304 S   0  0  0  0  0  0  0  0  0  0  0  0
   86.1214   46.3894  266.6610 O   0  0  0  0  0  0  0  0  0  0  0  0
   87.6704   48.2235  267.4846 O   0  0  0  0  0  0  0  0  0  0  0  0
   88.3749   45.6310  268.0078 C   0  0  0  0  0  0  0  0  0  0  0  0
   92.5599   53.1152  271.2532 N   0  0  0  0  0  0  0  0  0  0  0  0
   92.3043   46.4224  265.9664 H   0  0  0  0  0  0  0  0  0  0  0  0
   91.2065   50.2655  267.4562 H   0  0  0  0  0  0  0  0  0  0  0  0
   97.4806   48.1057  268.0323 H   0  0  0  0  0  0  0  0  0  0  0  0
   96.8056   45.9472  267.1187 H   0  0  0  0  0  0  0  0  0  0  0  0
   95.1111   51.6336  266.9219 H   0  0  0  0  0  0  0  0  0  0  0  0
   95.6221   53.8039  267.9637 H   0  0  0  0  0  0  0  0  0  0  0  0
   94.8809   53.7825  270.3315 H   0  0  0  0  0  0  0  0  0  0  0  0
   93.6114   54.5077  269.2878 H   0  0  0  0  0  0  0  0  0  0  0  0
   92.1547   50.8942  269.9575 H   0  0  0  0  0  0  0  0  0  0  0  0
   89.6278   48.6157  266.8844 H   0  0  0  0  0  0  0  0  0  0  0  0
   91.4266   47.4906  264.0159 H   0  0  0  0  0  0  0  0  0  0  0  0
   88.2404   45.3872  262.3258 H   0  0  0  0  0  0  0  0  0  0  0  0
   86.8951   45.6665  264.3685 H   0  0  0  0  0  0  0  0  0  0  0  0
   87.8952   45.5880  268.9968 H   0  0  0  0  0  0  0  0  0  0  0  0
   88.3195   44.6416  267.5303 H   0  0  0  0  0  0  0  0  0  0  0  0
   89.4289   45.9236  268.1241 H   0  0  0  0  0  0  0  0  0  0  0  0
   91.9085   52.4157  271.5470 H   0  0  0  0  0  0  0  0  0  0  0  0
  1  4  2  0  0  0  0
  1  6  1  0  0  0  0
  1 11  1  0  0  0  0
  2  3  2  0  0  0  0
  2  5  1  0  0  0  0
  3  4  1  0  0  0  0
  3 17  1  0  0  0  0
  5  6  2  0  0  0  0
  5 10  1  0  0  0  0
  6  7  1  0  0  0  0
  7  8  2  0  0  0  0
  8  9  1  0  0  0  0
  9 10  2  0  0  0  0
 11 12  1  0  0  0  0
 11 16  2  0  0  0  0
 12 13  2  0  0  0  0
 13 14  1  0  0  0  0
 14 15  1  0  0  0  0
 15 16  1  0  0  0  0
 15 28  2  0  0  0  0
 17 18  1  0  0  0  0
 18 19  2  0  0  0  0
 18 23  1  0  0  0  0
 19 20  1  0  0  0  0
 20 21  2  0  0  0  0
 21 22  1  0  0  0  0
 22 23  2  0  0  0  0
 23 24  1  0  0  0  0
 24 25  2  0  0  0  0
 24 26  2  0  0  0  0
 24 27  1  0  0  0  0
  2 29  1  0  0  0  0
  4 30  1  0  0  0  0
  8 31  1  0  0  0  0
  9 32  1  0  0  0  0
 12 33  1  0  0  0  0
 13 34  1  0  0  0  0
 14 35  1  0  0  0  0
 14 36  1  0  0  0  0
 16 37  1  0  0  0  0
 17 38  1  0  0  0  0
 19 39  1  0  0  0  0
 21 40  1  0  0  0  0
 22 41  1  0  0  0  0
 27 42  1  0  0  0  0
 27 43  1  0  0  0  0
 27 44  1  0  0  0  0
 28 45  1  0  0  0  0
M  END
> <ID>
39

> <IC50[uM]>
5.299

$$$$
39
  -OEChem-05192314313D
 Structure written by MMmdl.
 45 48  0     0  0  0  0  0  0999 V2000
   93.2802   49.7985  267.6875 C   0  0  0  0  0  0  0  0  0  0  0  0
   92.5744   47.3376  266.4723 C   0  0  0  0  0  0  0  0  0  0  0  0
   91.6199   48.3263  266.6804 C   0  0  0  0  0  0  0  0  0  0  0  0
   91.9714   49.5220  267.2872 C   0  0  0  0  0  0  0  0  0  0  0  0
   93.9019   47.5331  266.9251 C   0  0  0  0  0  0  0  0  0  0  0  0
   94.2659   48.7775  267.5222 C   0  0  0  0  0  0  0  0  0  0  0  0
   95.5666   48.9595  267.9453 N   0  0  0  0  0  0  0  0  0  0  0  0
   96.4488   47.9549  267.7510 C   0  0  0  0  0  0  0  0  0  0  0  0
   96.0765   46.7394  267.2041 C   0  0  0  0  0  0  0  0  0  0  0  0
   94.7993   46.5295  266.7714 N   0  0  0  0  0  0  0  0  0  0  0  0
   93.5961   51.1154  268.3351 C   0  0  0  0  0  0  0  0  0  0  0  0
   94.5698   51.9449  267.8031 C   0  0  0  0  0  0  0  0  0  0  0  0
   94.8585   53.1669  268.3850 C   0  0  0  0  0  0  0  0  0  0  0  0
   94.1392   53.5776  269.5454 C   0  0  0  0  0  0  0  0  0  0  0  0
   93.2374   52.7442  270.0633 C   0  0  0  0  0  0  0  0  0  0  0  0
   92.9105   51.5224  269.5097 C   0  0  0  0  0  0  0  0  0  0  0  0
   90.2895   48.1235  266.3187 N   0  0  0  0  0  0  0  0  0  0  0  0
   89.7108   47.3399  265.2871 C   0  0  0  0  0  0  0  0  0  0  0  0
   90.4200   47.1068  264.0926 C   0  0  0  0  0  0  0  0  0  0  0  0
   89.9178   46.4353  263.0435 N   0  0  0  0  0  0  0  0  0  0  0  0
   88.6596   45.9305  263.1598 C   0  0  0  0  0  0  0  0  0  0  0  0
   87.8887   46.0861  264.3126 C   0  0  0  0  0  0  0  0  0  0  0  0
   88.4246   46.7965  265.3987 C   0  0  0  0  0  0  0  0  0  0  0  0
   87.4849   46.9002  266.9304 S   0  0  0  0  0  0  0  0  0  0  0  0
   86.1214   46.3894  266.6610 O   0  0  0  0  0  0  0  0  0  0  0  0
   87.6704   48.2235  267.4846 O   0  0  0  0  0  0  0  0  0  0  0  0
   88.3749   45.6310  268.0078 C   0  0  0  0  0  0  0  0  0  0  0  0
   92.5599   53.1152  271.2532 N   0  0  0  0  0  0  0  0  0  0  0  0
   92.3043   46.4224  265.9664 H   0  0  0  0  0  0  0  0  0  0  0  0
   91.2065   50.2655  267.4562 H   0  0  0  0  0  0  0  0  0  0  0  0
   97.4806   48.1057  268.0323 H   0  0  0  0  0  0  0  0  0  0  0  0
   96.8056   45.9472  267.1187 H   0  0  0  0  0  0  0  0  0  0  0  0
   95.5067   51.3686  267.8039 H   0  0  0  0  0  0  0  0  0  0  0  0
   94.2695   52.1551  266.7660 H   0  0  0  0  0  0  0  0  0  0  0  0
   95.6221   53.8039  267.9637 H   0  0  0  0  0  0  0  0  0  0  0  0
   94.3211   54.5427  269.9948 H   0  0  0  0  0  0  0  0  0  0  0  0
   92.1547   50.8942  269.9575 H   0  0  0  0  0  0  0  0  0  0  0  0
   89.6278   48.6157  266.8844 H   0  0  0  0  0  0  0  0  0  0  0  0
   91.4266   47.4906  264.0159 H   0  0  0  0  0  0  0  0  0  0  0  0
   88.2404   45.3872  262.3258 H   0  0  0  0  0  0  0  0  0  0  0  0
   86.8951   45.6665  264.3685 H   0  0  0  0  0  0  0  0  0  0  0  0
   87.8952   45.5880  268.9968 H   0  0  0  0  0  0  0  0  0  0  0  0
   88.3195   44.6416  267.5303 H   0  0  0  0  0  0  0  0  0  0  0  0
   89.4289   45.9236  268.1241 H   0  0  0  0  0  0  0  0  0  0  0  0
   91.9085   52.4157  271.5470 H   0  0  0  0  0  0  0  0  0  0  0  0
  1  4  2  0  0  0  0
  1  6  1  0  0  0  0
  1 11  1  0  0  0  0
  2  3  2  0  0  0  0
  2  5  1  0  0  0  0
  3  4  1  0  0  0  0
  3 17  1  0  0  0  0
  5  6  2  0  0  0  0
  5 10  1  0  0  0  0
  6  7  1  0  0  0  0
  7  8  2  0  0  0  0
  8  9  1  0  0  0  0
  9 10  2  0  0  0  0
 11 12  1  0  0  0  0
 11 16  2  0  0  0  0
 12 13  1  0  0  0  0
 13 14  2  0  0  0  0
 14 15  1  0  0  0  0
 15 16  1  0  0  0  0
 15 28  2  0  0  0  0
 17 18  1  0  0  0  0
 18 19  2  0  0  0  0
 18 23  1  0  0  0  0
 19 20  1  0  0  0  0
 20 21  2  0  0  0  0
 21 22  1  0  0  0  0
 22 23  2  0  0  0  0
 23 24  1  0  0  0  0
 24 25  2  0  0  0  0
 24 26  2  0  0  0  0
 24 27  1  0  0  0  0
  2 29  1  0  0  0  0
  4 30  1  0  0  0  0
  8 31  1  0  0  0  0
  9 32  1  0  0  0  0
 12 33  1  0  0  0  0
 12 34  1  0  0  0  0
 13 35  1  0  0  0  0
 14 36  1  0  0  0  0
 16 37  1  0  0  0  0
 17 38  1  0  0  0  0
 19 39  1  0  0  0  0
 21 40  1  0  0  0  0
 22 41  1  0  0  0  0
 27 42  1  0  0  0  0
 27 43  1  0  0  0  0
 27 44  1  0  0  0  0
 28 45  1  0  0  0  0
M  END
> <ID>
39

> <IC50[uM]>
5.299

$$$$
39
  -OEChem-05192314313D
 Structure written by MMmdl.
 45 48  0     0  0  0  0  0  0999 V2000
   93.2802   49.7985  267.6875 C   0  0  0  0  0  0  0  0  0  0  0  0
   92.5744   47.3376  266.4723 C   0  0  0  0  0  0  0  0  0  0  0  0
   91.6199   48.3263  266.6804 C   0  0  0  0  0  0  0  0  0  0  0  0
   91.9714   49.5220  267.2872 C   0  0  0  0  0  0  0  0  0  0  0  0
   93.9019   47.5331  266.9251 C   0  0  0  0  0  0  0  0  0  0  0  0
   94.2659   48.7775  267.5222 C   0  0  0  0  0  0  0  0  0  0  0  0
   95.5666   48.9595  267.9453 N   0  0  0  0  0  0  0  0  0  0  0  0
   96.4488   47.9549  267.7510 C   0  0  0  0  0  0  0  0  0  0  0  0
   96.0765   46.7394  267.2041 C   0  0  0  0  0  0  0  0  0  0  0  0
   94.7993   46.5295  266.7714 N   0  0  0  0  0  0  0  0  0  0  0  0
   93.5961   51.1154  268.3351 C   0  0  0  0  0  0  0  0  0  0  0  0
   94.5698   51.9449  267.8031 C   0  0  0  0  0  0  0  0  0  0  0  0
   94.8585   53.1669  268.3850 C   0  0  0  0  0  0  0  0  0  0  0  0
   94.1392   53.5776  269.5454 C   0  0  0  0  0  0  0  0  0  0  0  0
   93.2374   52.7442  270.0633 C   0  0  0  0  0  0  0  0  0  0  0  0
   92.9105   51.5224  269.5097 C   0  0  0  0  0  0  0  0  0  0  0  0
   90.2895   48.1235  266.3187 N   0  0  0  0  0  0  0  0  0  0  0  0
   89.7108   47.3399  265.2871 C   0  0  0  0  0  0  0  0  0  0  0  0
   90.4200   47.1068  264.0926 C   0  0  0  0  0  0  0  0  0  0  0  0
   89.9178   46.4353  263.0435 N   0  0  0  0  0  0  0  0  0  0  0  0
   88.6596   45.9305  263.1598 C   0  0  0  0  0  0  0  0  0  0  0  0
   87.8887   46.0861  264.3126 C   0  0  0  0  0  0  0  0  0  0  0  0
   88.4246   46.7965  265.3987 C   0  0  0  0  0  0  0  0  0  0  0  0
   87.4849   46.9002  266.9304 S   0  0  0  0  0  0  0  0  0  0  0  0
   86.1214   46.3894  266.6610 O   0  0  0  0  0  0  0  0  0  0  0  0
   87.6704   48.2235  267.4846 O   0  0  0  0  0  0  0  0  0  0  0  0
   88.3749   45.6310  268.0078 C   0  0  0  0  0  0  0  0  0  0  0  0
   92.5599   53.1152  271.2532 N   0  0  0  0  0  0  0  0  0  0  0  0
   92.3043   46.4224  265.9664 H   0  0  0  0  0  0  0  0  0  0  0  0
   91.2065   50.2655  267.4562 H   0  0  0  0  0  0  0  0  0  0  0  0
   97.4806   48.1057  268.0323 H   0  0  0  0  0  0  0  0  0  0  0  0
   96.8056   45.9472  267.1187 H   0  0  0  0  0  0  0  0  0  0  0  0
   95.1111   51.6336  266.9219 H   0  0  0  0  0  0  0  0  0  0  0  0
   95.6221   53.8039  267.9637 H   0  0  0  0  0  0  0  0  0  0  0  0
   94.3211   54.5427  269.9948 H   0  0  0  0  0  0  0  0  0  0  0  0
   91.8376   51.5496  269.2687 H   0  0  0  0  0  0  0  0  0  0  0  0
   93.0946   50.7563  270.2773 H   0  0  0  0  0  0  0  0  0  0  0  0
   89.6278   48.6157  266.8844 H   0  0  0  0  0  0  0  0  0  0  0  0
   91.4266   47.4906  264.0159 H   0  0  0  0  0  0  0  0  0  0  0  0
   88.2404   45.3872  262.3258 H   0  0  0  0  0  0  0  0  0  0  0  0
   86.8951   45.6665  264.3685 H   0  0  0  0  0  0  0  0  0  0  0  0
   87.8952   45.5880  268.9968 H   0  0  0  0  0  0  0  0  0  0  0  0
   88.3195   44.6416  267.5303 H   0  0  0  0  0  0  0  0  0  0  0  0
   89.4289   45.9236  268.1241 H   0  0  0  0  0  0  0  0  0  0  0  0
   91.9085   52.4157  271.5470 H   0  0  0  0  0  0  0  0  0  0  0  0
  1  4  2  0  0  0  0
  1  6  1  0  0  0  0
  1 11  1  0  0  0  0
  2  3  2  0  0  0  0
  2  5  1  0  0  0  0
  3  4  1  0  0  0  0
  3 17  1  0  0  0  0
  5  6  2  0  0  0  0
  5 10  1  0  0  0  0
  6  7  1  0  0  0  0
  7  8  2  0  0  0  0
  8  9  1  0  0  0  0
  9 10  2  0  0  0  0
 11 12  2  0  0  0  0
 11 16  1  0  0  0  0
 12 13  1  0  0  0  0
 13 14  2  0  0  0  0
 14 15  1  0  0  0  0
 15 16  1  0  0  0  0
 15 28  2  0  0  0  0
 17 18  1  0  0  0  0
 18 19  2  0  0  0  0
 18 23  1  0  0  0  0
 19 20  1  0  0  0  0
 20 21  2  0  0  0  0
 21 22  1  0  0  0  0
 22 23  2  0  0  0  0
 23 24  1  0  0  0  0
 24 25  2  0  0  0  0
 24 26  2  0  0  0  0
 24 27  1  0  0  0  0
  2 29  1  0  0  0  0
  4 30  1  0  0  0  0
  8 31  1  0  0  0  0
  9 32  1  0  0  0  0
 12 33  1  0  0  0  0
 13 34  1  0  0  0  0
 14 35  1  0  0  0  0
 16 36  1  0  0  0  0
 16 37  1  0  0  0  0
 17 38  1  0  0  0  0
 19 39  1  0  0  0  0
 21 40  1  0  0  0  0
 22 41  1  0  0  0  0
 27 42  1  0  0  0  0
 27 43  1  0  0  0  0
 27 44  1  0  0  0  0
 28 45  1  0  0  0  0
M  END
> <ID>
39

> <IC50[uM]>
5.299

$$$$
39
  -OEChem-05192314313D
 Structure written by MMmdl.
 45 48  0     0  0  0  0  0  0999 V2000
   93.2802   49.7985  267.6875 C   0  0  0  0  0  0  0  0  0  0  0  0
   92.5744   47.3376  266.4723 C   0  0  0  0  0  0  0  0  0  0  0  0
   91.6199   48.3263  266.6804 C   0  0  0  0  0  0  0  0  0  0  0  0
   91.9714   49.5220  267.2872 C   0  0  0  0  0  0  0  0  0  0  0  0
   93.9019   47.5331  266.9251 C   0  0  0  0  0  0  0  0  0  0  0  0
   94.2659   48.7775  267.5222 C   0  0  0  0  0  0  0  0  0  0  0  0
   95.5666   48.9595  267.9453 N   0  0  0  0  0  0  0  0  0  0  0  0
   96.4488   47.9549  267.7510 C   0  0  0  0  0  0  0  0  0  0  0  0
   96.0765   46.7394  267.2041 C   0  0  0  0  0  0  0  0  0  0  0  0
   94.7993   46.5295  266.7714 N   0  0  0  0  0  0  0  0  0  0  0  0
   93.5961   51.1154  268.3351 C   0  0  0  0  0  0  0  0  0  0  0  0
   94.5698   51.9449  267.8031 C   0  0  0  0  0  0  0  0  0  0  0  0
   94.8585   53.1669  268.3850 C   0  0  0  0  0  0  0  0  0  0  0  0
   94.1392   53.5776  269.5454 C   0  0  0  0  0  0  0  0  0  0  0  0
   93.2374   52.7442  270.0633 C   0  0  0  0  0  0  0  0  0  0  0  0
   92.9105   51.5224  269.5097 C   0  0  0  0  0  0  0  0  0  0  0  0
   90.2895   48.1235  266.3187 N   0  0  0  0  0  0  0  0  0  0  0  0
   89.7108   47.3399  265.2871 C   0  0  0  0  0  0  0  0  0  0  0  0
   90.4200   47.1068  264.0926 C   0  0  0  0  0  0  0  0  0  0  0  0
   89.9178   46.4353  263.0435 N   0  0  0  0  0  0  0  0  0  0  0  0
   88.6596   45.9305  263.1598 C   0  0  0  0  0  0  0  0  0  0  0  0
   87.8887   46.0861  264.3126 C   0  0  0  0  0  0  0  0  0  0  0  0
   88.4246   46.7965  265.3987 C   0  0  0  0  0  0  0  0  0  0  0  0
   87.4849   46.9002  266.9304 S   0  0  0  0  0  0  0  0  0  0  0  0
   86.1214   46.3894  266.6610 O   0  0  0  0  0  0  0  0  0  0  0  0
   87.6704   48.2235  267.4846 O   0  0  0  0  0  0  0  0  0  0  0  0
   88.3749   45.6310  268.0078 C   0  0  0  0  0  0  0  0  0  0  0  0
   92.5599   53.1152  271.2532 N   0  0  0  0  0  0  0  0  0  0  0  0
   92.3043   46.4224  265.9664 H   0  0  0  0  0  0  0  0  0  0  0  0
   91.2065   50.2655  267.4562 H   0  0  0  0  0  0  0  0  0  0  0  0
   97.4806   48.1057  268.0323 H   0  0  0  0  0  0  0  0  0  0  0  0
   96.8056   45.9472  267.1187 H   0  0  0  0  0  0  0  0  0  0  0  0
   94.5336   45.6608  266.3533 H   0  0  0  0  0  0  0  0  0  0  0  0
   95.1111   51.6336  266.9219 H   0  0  0  0  0  0  0  0  0  0  0  0
   95.6221   53.8039  267.9637 H   0  0  0  0  0  0  0  0  0  0  0  0
   94.8809   53.7825  270.3315 H   0  0  0  0  0  0  0  0  0  0  0  0
   93.6114   54.5077  269.2878 H   0  0  0  0  0  0  0  0  0  0  0  0
   92.1547   50.8942  269.9575 H   0  0  0  0  0  0  0  0  0  0  0  0
   91.4266   47.4906  264.0159 H   0  0  0  0  0  0  0  0  0  0  0  0
   88.2404   45.3872  262.3258 H   0  0  0  0  0  0  0  0  0  0  0  0
   86.8951   45.6665  264.3685 H   0  0  0  0  0  0  0  0  0  0  0  0
   87.8952   45.5880  268.9968 H   0  0  0  0  0  0  0  0  0  0  0  0
   88.3195   44.6416  267.5303 H   0  0  0  0  0  0  0  0  0  0  0  0
   89.4289   45.9236  268.1241 H   0  0  0  0  0  0  0  0  0  0  0  0
   91.9085   52.4157  271.5470 H   0  0  0  0  0  0  0  0  0  0  0  0
  1  4  2  0  0  0  0
  1  6  1  0  0  0  0
  1 11  1  0  0  0  0
  2  3  1  0  0  0  0
  2  5  2  0  0  0  0
  3  4  1  0  0  0  0
  3 17  2  0  0  0  0
  5  6  1  0  0  0  0
  5 10  1  0  0  0  0
  6  7  2  0  0  0  0
  7  8  1  0  0  0  0
  8  9  2  0  0  0  0
  9 10  1  0  0  0  0
 11 12  1  0  0  0  0
 11 16  2  0  0  0  0
 12 13  2  0  0  0  0
 13 14  1  0  0  0  0
 14 15  1  0  0  0  0
 15 16  1  0  0  0  0
 15 28  2  0  0  0  0
 17 18  1  0  0  0  0
 18 19  2  0  0  0  0
 18 23  1  0  0  0  0
 19 20  1  0  0  0  0
 20 21  2  0  0  0  0
 21 22  1  0  0  0  0
 22 23  2  0  0  0  0
 23 24  1  0  0  0  0
 24 25  2  0  0  0  0
 24 26  2  0  0  0  0
 24 27  1  0  0  0  0
  2 29  1  0  0  0  0
  4 30  1  0  0  0  0
  8 31  1  0  0  0  0
  9 32  1  0  0  0  0
 10 33  1  0  0  0  0
 12 34  1  0  0  0  0
 13 35  1  0  0  0  0
 14 36  1  0  0  0  0
 14 37  1  0  0  0  0
 16 38  1  0  0  0  0
 19 39  1  0  0  0  0
 21 40  1  0  0  0  0
 22 41  1  0  0  0  0
 27 42  1  0  0  0  0
 27 43  1  0  0  0  0
 27 44  1  0  0  0  0
 28 45  1  0  0  0  0
M  END
> <ID>
39

> <IC50[uM]>
5.299

$$$$
39
  -OEChem-05192314313D
 Structure written by MMmdl.
 45 48  0     0  0  0  0  0  0999 V2000
   93.2802   49.7985  267.6875 C   0  0  0  0  0  0  0  0  0  0  0  0
   92.5744   47.3376  266.4723 C   0  0  0  0  0  0  0  0  0  0  0  0
   91.6199   48.3263  266.6804 C   0  0  0  0  0  0  0  0  0  0  0  0
   91.9714   49.5220  267.2872 C   0  0  0  0  0  0  0  0  0  0  0  0
   93.9019   47.5331  266.9251 C   0  0  0  0  0  0  0  0  0  0  0  0
   94.2659   48.7775  267.5222 C   0  0  0  0  0  0  0  0  0  0  0  0
   95.5666   48.9595  267.9453 N   0  0  0  0  0  0  0  0  0  0  0  0
   96.4488   47.9549  267.7510 C   0  0  0  0  0  0  0  0  0  0  0  0
   96.0765   46.7394  267.2041 C   0  0  0  0  0  0  0  0  0  0  0  0
   94.7993   46.5295  266.7714 N   0  0  0  0  0  0  0  0  0  0  0  0
   93.5961   51.1154  268.3351 C   0  0  0  0  0  0  0  0  0  0  0  0
   94.5698   51.9449  267.8031 C   0  0  0  0  0  0  0  0  0  0  0  0
   94.8585   53.1669  268.3850 C   0  0  0  0  0  0  0  0  0  0  0  0
   94.1392   53.5776  269.5454 C   0  0  0  0  0  0  0  0  0  0  0  0
   93.2374   52.7442  270.0633 C   0  0  0  0  0  0  0  0  0  0  0  0
   92.9105   51.5224  269.5097 C   0  0  0  0  0  0  0  0  0  0  0  0
   90.2895   48.1235  266.3187 N   0  0  0  0  0  0  0  0  0  0  0  0
   89.7108   47.3399  265.2871 C   0  0  0  0  0  0  0  0  0  0  0  0
   90.4200   47.1068  264.0926 C   0  0  0  0  0  0  0  0  0  0  0  0
   89.9178   46.4353  263.0435 N   0  0  0  0  0  0  0  0  0  0  0  0
   88.6596   45.9305  263.1598 C   0  0  0  0  0  0  0  0  0  0  0  0
   87.8887   46.0861  264.3126 C   0  0  0  0  0  0  0  0  0  0  0  0
   88.4246   46.7965  265.3987 C   0  0  0  0  0  0  0  0  0  0  0  0
   87.4849   46.9002  266.9304 S   0  0  0  0  0  0  0  0  0  0  0  0
   86.1214   46.3894  266.6610 O   0  0  0  0  0  0  0  0  0  0  0  0
   87.6704   48.2235  267.4846 O   0  0  0  0  0  0  0  0  0  0  0  0
   88.3749   45.6310  268.0078 C   0  0  0  0  0  0  0  0  0  0  0  0
   92.5599   53.1152  271.2532 N   0  0  0  0  0  0  0  0  0  0  0  0
   92.3043   46.4224  265.9664 H   0  0  0  0  0  0  0  0  0  0  0  0
   91.2065   50.2655  267.4562 H   0  0  0  0  0  0  0  0  0  0  0  0
   97.4806   48.1057  268.0323 H   0  0  0  0  0  0  0  0  0  0  0  0
   96.8056   45.9472  267.1187 H   0  0  0  0  0  0  0  0  0  0  0  0
   94.5336   45.6608  266.3533 H   0  0  0  0  0  0  0  0  0  0  0  0
   95.5067   51.3686  267.8039 H   0  0  0  0  0  0  0  0  0  0  0  0
   94.2695   52.1551  266.7660 H   0  0  0  0  0  0  0  0  0  0  0  0
   95.6221   53.8039  267.9637 H   0  0  0  0  0  0  0  0  0  0  0  0
   94.3211   54.5427  269.9948 H   0  0  0  0  0  0  0  0  0  0  0  0
   92.1547   50.8942  269.9575 H   0  0  0  0  0  0  0  0  0  0  0  0
   91.4266   47.4906  264.0159 H   0  0  0  0  0  0  0  0  0  0  0  0
   88.2404   45.3872  262.3258 H   0  0  0  0  0  0  0  0  0  0  0  0
   86.8951   45.6665  264.3685 H   0  0  0  0  0  0  0  0  0  0  0  0
   87.8952   45.5880  268.9968 H   0  0  0  0  0  0  0  0  0  0  0  0
   88.3195   44.6416  267.5303 H   0  0  0  0  0  0  0  0  0  0  0  0
   89.4289   45.9236  268.1241 H   0  0  0  0  0  0  0  0  0  0  0  0
   91.9085   52.4157  271.5470 H   0  0  0  0  0  0  0  0  0  0  0  0
  1  4  2  0  0  0  0
  1  6  1  0  0  0  0
  1 11  1  0  0  0  0
  2  3  1  0  0  0  0
  2  5  2  0  0  0  0
  3  4  1  0  0  0  0
  3 17  2  0  0  0  0
  5  6  1  0  0  0  0
  5 10  1  0  0  0  0
  6  7  2  0  0  0  0
  7  8  1  0  0  0  0
  8  9  2  0  0  0  0
  9 10  1  0  0  0  0
 11 12  1  0  0  0  0
 11 16  2  0  0  0  0
 12 13  1  0  0  0  0
 13 14  2  0  0  0  0
 14 15  1  0  0  0  0
 15 16  1  0  0  0  0
 15 28  2  0  0  0  0
 17 18  1  0  0  0  0
 18 19  2  0  0  0  0
 18 23  1  0  0  0  0
 19 20  1  0  0  0  0
 20 21  2  0  0  0  0
 21 22  1  0  0  0  0
 22 23  2  0  0  0  0
 23 24  1  0  0  0  0
 24 25  2  0  0  0  0
 24 26  2  0  0  0  0
 24 27  1  0  0  0  0
  2 29  1  0  0  0  0
  4 30  1  0  0  0  0
  8 31  1  0  0  0  0
  9 32  1  0  0  0  0
 10 33  1  0  0  0  0
 12 34  1  0  0  0  0
 12 35  1  0  0  0  0
 13 36  1  0  0  0  0
 14 37  1  0  0  0  0
 16 38  1  0  0  0  0
 19 39  1  0  0  0  0
 21 40  1  0  0  0  0
 22 41  1  0  0  0  0
 27 42  1  0  0  0  0
 27 43  1  0  0  0  0
 27 44  1  0  0  0  0
 28 45  1  0  0  0  0
M  END
> <ID>
39

> <IC50[uM]>
5.299

$$$$
39
  -OEChem-05192314313D
 Structure written by MMmdl.
 45 48  0     0  0  0  0  0  0999 V2000
   93.2802   49.7985  267.6875 C   0  0  0  0  0  0  0  0  0  0  0  0
   92.5744   47.3376  266.4723 C   0  0  0  0  0  0  0  0  0  0  0  0
   91.6199   48.3263  266.6804 C   0  0  0  0  0  0  0  0  0  0  0  0
   91.9714   49.5220  267.2872 C   0  0  0  0  0  0  0  0  0  0  0  0
   93.9019   47.5331  266.9251 C   0  0  0  0  0  0  0  0  0  0  0  0
   94.2659   48.7775  267.5222 C   0  0  0  0  0  0  0  0  0  0  0  0
   95.5666   48.9595  267.9453 N   0  0  0  0  0  0  0  0  0  0  0  0
   96.4488   47.9549  267.7510 C   0  0  0  0  0  0  0  0  0  0  0  0
   96.0765   46.7394  267.2041 C   0  0  0  0  0  0  0  0  0  0  0  0
   94.7993   46.5295  266.7714 N   0  0  0  0  0  0  0  0  0  0  0  0
   93.5961   51.1154  268.3351 C   0  0  0  0  0  0  0  0  0  0  0  0
   94.5698   51.9449  267.8031 C   0  0  0  0  0  0  0  0  0  0  0  0
   94.8585   53.1669  268.3850 C   0  0  0  0  0  0  0  0  0  0  0  0
   94.1392   53.5776  269.5454 C   0  0  0  0  0  0  0  0  0  0  0  0
   93.2374   52.7442  270.0633 C   0  0  0  0  0  0  0  0  0  0  0  0
   92.9105   51.5224  269.5097 C   0  0  0  0  0  0  0  0  0  0  0  0
   90.2895   48.1235  266.3187 N   0  0  0  0  0  0  0  0  0  0  0  0
   89.7108   47.3399  265.2871 C   0  0  0  0  0  0  0  0  0  0  0  0
   90.4200   47.1068  264.0926 C   0  0  0  0  0  0  0  0  0  0  0  0
   89.9178   46.4353  263.0435 N   0  0  0  0  0  0  0  0  0  0  0  0
   88.6596   45.9305  263.1598 C   0  0  0  0  0  0  0  0  0  0  0  0
   87.8887   46.0861  264.3126 C   0  0  0  0  0  0  0  0  0  0  0  0
   88.4246   46.7965  265.3987 C   0  0  0  0  0  0  0  0  0  0  0  0
   87.4849   46.9002  266.9304 S   0  0  0  0  0  0  0  0  0  0  0  0
   86.1214   46.3894  266.6610 O   0  0  0  0  0  0  0  0  0  0  0  0
   87.6704   48.2235  267.4846 O   0  0  0  0  0  0  0  0  0  0  0  0
   88.3749   45.6310  268.0078 C   0  0  0  0  0  0  0  0  0  0  0  0
   92.5599   53.1152  271.2532 N   0  0  0  0  0  0  0  0  0  0  0  0
   92.3043   46.4224  265.9664 H   0  0  0  0  0  0  0  0  0  0  0  0
   91.2065   50.2655  267.4562 H   0  0  0  0  0  0  0  0  0  0  0  0
   97.4806   48.1057  268.0323 H   0  0  0  0  0  0  0  0  0  0  0  0
   96.8056   45.9472  267.1187 H   0  0  0  0  0  0  0  0  0  0  0  0
   94.5336   45.6608  266.3533 H   0  0  0  0  0  0  0  0  0  0  0  0
   95.1111   51.6336  266.9219 H   0  0  0  0  0  0  0  0  0  0  0  0
   95.6221   53.8039  267.9637 H   0  0  0  0  0  0  0  0  0  0  0  0
   94.3211   54.5427  269.9948 H   0  0  0  0  0  0  0  0  0  0  0  0
   91.8376   51.5496  269.2687 H   0  0  0  0  0  0  0  0  0  0  0  0
   93.0946   50.7563  270.2773 H   0  0  0  0  0  0  0  0  0  0  0  0
   91.4266   47.4906  264.0159 H   0  0  0  0  0  0  0  0  0  0  0  0
   88.2404   45.3872  262.3258 H   0  0  0  0  0  0  0  0  0  0  0  0
   86.8951   45.6665  264.3685 H   0  0  0  0  0  0  0  0  0  0  0  0
   87.8952   45.5880  268.9968 H   0  0  0  0  0  0  0  0  0  0  0  0
   88.3195   44.6416  267.5303 H   0  0  0  0  0  0  0  0  0  0  0  0
   89.4289   45.9236  268.1241 H   0  0  0  0  0  0  0  0  0  0  0  0
   91.9085   52.4157  271.5470 H   0  0  0  0  0  0  0  0  0  0  0  0
  1  4  2  0  0  0  0
  1  6  1  0  0  0  0
  1 11  1  0  0  0  0
  2  3  1  0  0  0  0
  2  5  2  0  0  0  0
  3  4  1  0  0  0  0
  3 17  2  0  0  0  0
  5  6  1  0  0  0  0
  5 10  1  0  0  0  0
  6  7  2  0  0  0  0
  7  8  1  0  0  0  0
  8  9  2  0  0  0  0
  9 10  1  0  0  0  0
 11 12  2  0  0  0  0
 11 16  1  0  0  0  0
 12 13  1  0  0  0  0
 13 14  2  0  0  0  0
 14 15  1  0  0  0  0
 15 16  1  0  0  0  0
 15 28  2  0  0  0  0
 17 18  1  0  0  0  0
 18 19  2  0  0  0  0
 18 23  1  0  0  0  0
 19 20  1  0  0  0  0
 20 21  2  0  0  0  0
 21 22  1  0  0  0  0
 22 23  2  0  0  0  0
 23 24  1  0  0  0  0
 24 25  2  0  0  0  0
 24 26  2  0  0  0  0
 24 27  1  0  0  0  0
  2 29  1  0  0  0  0
  4 30  1  0  0  0  0
  8 31  1  0  0  0  0
  9 32  1  0  0  0  0
 10 33  1  0  0  0  0
 12 34  1  0  0  0  0
 13 35  1  0  0  0  0
 14 36  1  0  0  0  0
 16 37  1  0  0  0  0
 16 38  1  0  0  0  0
 19 39  1  0  0  0  0
 21 40  1  0  0  0  0
 22 41  1  0  0  0  0
 27 42  1  0  0  0  0
 27 43  1  0  0  0  0
 27 44  1  0  0  0  0
 28 45  1  0  0  0  0
M  END
> <ID>
39

> <IC50[uM]>
5.299

$$$$
39
  -OEChem-05192314313D
 Structure written by MMmdl.
 45 48  0     1  0  0  0  0  0999 V2000
   93.2802   49.7985  267.6875 C   0  0  0  0  0  0  0  0  0  0  0  0
   92.5744   47.3376  266.4723 C   0  0  0  0  0  0  0  0  0  0  0  0
   91.6199   48.3263  266.6804 C   0  0  0  0  0  0  0  0  0  0  0  0
   91.9714   49.5220  267.2872 C   0  0  0  0  0  0  0  0  0  0  0  0
   93.9019   47.5331  266.9251 C   0  0  0  0  0  0  0  0  0  0  0  0
   94.2659   48.7775  267.5222 C   0  0  3  0  0  0  0  0  0  0  0  0
   95.5666   48.9595  267.9453 N   0  0  0  0  0  0  0  0  0  0  0  0
   96.4488   47.9549  267.7510 C   0  0  0  0  0  0  0  0  0  0  0  0
   96.0765   46.7394  267.2041 C   0  0  0  0  0  0  0  0  0  0  0  0
   94.7993   46.5295  266.7714 N   0  0  0  0  0  0  0  0  0  0  0  0
   93.5961   51.1154  268.3351 C   0  0  0  0  0  0  0  0  0  0  0  0
   94.5698   51.9449  267.8031 C   0  0  0  0  0  0  0  0  0  0  0  0
   94.8585   53.1669  268.3850 C   0  0  0  0  0  0  0  0  0  0  0  0
   94.1392   53.5776  269.5454 C   0  0  0  0  0  0  0  0  0  0  0  0
   93.2374   52.7442  270.0633 C   0  0  0  0  0  0  0  0  0  0  0  0
   92.9105   51.5224  269.5097 C   0  0  0  0  0  0  0  0  0  0  0  0
   90.2895   48.1235  266.3187 N   0  0  0  0  0  0  0  0  0  0  0  0
   89.7108   47.3399  265.2871 C   0  0  0  0  0  0  0  0  0  0  0  0
   90.4200   47.1068  264.0926 C   0  0  0  0  0  0  0  0  0  0  0  0
   89.9178   46.4353  263.0435 N   0  0  0  0  0  0  0  0  0  0  0  0
   88.6596   45.9305  263.1598 C   0  0  0  0  0  0  0  0  0  0  0  0
   87.8887   46.0861  264.3126 C   0  0  0  0  0  0  0  0  0  0  0  0
   88.4246   46.7965  265.3987 C   0  0  0  0  0  0  0  0  0  0  0  0
   87.4849   46.9002  266.9304 S   0  0  0  0  0  0  0  0  0  0  0  0
   86.1214   46.3894  266.6610 O   0  0  0  0  0  0  0  0  0  0  0  0
   87.6704   48.2235  267.4846 O   0  0  0  0  0  0  0  0  0  0  0  0
   88.3749   45.6310  268.0078 C   0  0  0  0  0  0  0  0  0  0  0  0
   92.5599   53.1152  271.2532 N   0  0  0  0  0  0  0  0  0  0  0  0
   92.3043   46.4224  265.9664 H   0  0  0  0  0  0  0  0  0  0  0  0
   91.2065   50.2655  267.4562 H   0  0  0  0  0  0  0  0  0  0  0  0
   94.5258   49.1818  266.5327 H   0  0  0  0  0  0  0  0  0  0  0  0
   97.4806   48.1057  268.0323 H   0  0  0  0  0  0  0  0  0  0  0  0
   96.8056   45.9472  267.1187 H   0  0  0  0  0  0  0  0  0  0  0  0
   95.1111   51.6336  266.9219 H   0  0  0  0  0  0  0  0  0  0  0  0
   95.6221   53.8039  267.9637 H   0  0  0  0  0  0  0  0  0  0  0  0
   94.3211   54.5427  269.9948 H   0  0  0  0  0  0  0  0  0  0  0  0
   92.1547   50.8942  269.9575 H   0  0  0  0  0  0  0  0  0  0  0  0
   91.4266   47.4906  264.0159 H   0  0  0  0  0  0  0  0  0  0  0  0
   88.2404   45.3872  262.3258 H   0  0  0  0  0  0  0  0  0  0  0  0
   86.8951   45.6665  264.3685 H   0  0  0  0  0  0  0  0  0  0  0  0
   87.8952   45.5880  268.9968 H   0  0  0  0  0  0  0  0  0  0  0  0
   88.3195   44.6416  267.5303 H   0  0  0  0  0  0  0  0  0  0  0  0
   89.4289   45.9236  268.1241 H   0  0  0  0  0  0  0  0  0  0  0  0
   91.9209   52.3912  271.5131 H   0  0  0  0  0  0  0  0  0  0  0  0
   93.2255   53.2513  271.9870 H   0  0  0  0  0  0  0  0  0  0  0  0
  1  4  2  0  0  0  0
  1  6  1  0  0  0  0
  1 11  1  0  0  0  0
  2  3  1  0  0  0  0
  2  5  2  0  0  0  0
  3  4  1  0  0  0  0
  3 17  2  0  0  0  0
  5  6  1  0  0  0  0
  5 10  1  0  0  0  0
  6  7  1  0  0  0  0
  7  8  2  0  0  0  0
  8  9  1  0  0  0  0
  9 10  2  0  0  0  0
 11 12  2  0  0  0  0
 11 16  1  0  0  0  0
 12 13  1  0  0  0  0
 13 14  2  0  0  0  0
 14 15  1  0  0  0  0
 15 16  2  0  0  0  0
 15 28  1  0  0  0  0
 17 18  1  0  0  0  0
 18 19  2  0  0  0  0
 18 23  1  0  0  0  0
 19 20  1  0  0  0  0
 20 21  2  0  0  0  0
 21 22  1  0  0  0  0
 22 23  2  0  0  0  0
 23 24  1  0  0  0  0
 24 25  2  0  0  0  0
 24 26  2  0  0  0  0
 24 27  1  0  0  0  0
  2 29  1  0  0  0  0
  4 30  1  0  0  0  0
  6 31  1  0  0  0  0
  8 32  1  0  0  0  0
  9 33  1  0  0  0  0
 12 34  1  0  0  0  0
 13 35  1  0  0  0  0
 14 36  1  0  0  0  0
 16 37  1  0  0  0  0
 19 38  1  0  0  0  0
 21 39  1  0  0  0  0
 22 40  1  0  0  0  0
 27 41  1  0  0  0  0
 27 42  1  0  0  0  0
 27 43  1  0  0  0  0
 28 44  1  0  0  0  0
 28 45  1  0  0  0  0
M  END
> <ID>
39

> <IC50[uM]>
5.299

$$$$
39
  -OEChem-05192314313D
 Structure written by MMmdl.
 45 48  0     0  0  0  0  0  0999 V2000
   93.2802   49.7985  267.6875 C   0  0  0  0  0  0  0  0  0  0  0  0
   92.5744   47.3376  266.4723 C   0  0  0  0  0  0  0  0  0  0  0  0
   91.6199   48.3263  266.6804 C   0  0  0  0  0  0  0  0  0  0  0  0
   91.9714   49.5220  267.2872 C   0  0  0  0  0  0  0  0  0  0  0  0
   93.9019   47.5331  266.9251 C   0  0  0  0  0  0  0  0  0  0  0  0
   94.2659   48.7775  267.5222 C   0  0  0  0  0  0  0  0  0  0  0  0
   95.5666   48.9595  267.9453 N   0  0  0  0  0  0  0  0  0  0  0  0
   96.4488   47.9549  267.7510 C   0  0  0  0  0  0  0  0  0  0  0  0
   96.0765   46.7394  267.2041 C   0  0  0  0  0  0  0  0  0  0  0  0
   94.7993   46.5295  266.7714 N   0  0  0  0  0  0  0  0  0  0  0  0
   93.5961   51.1154  268.3351 C   0  0  0  0  0  0  0  0  0  0  0  0
   94.5698   51.9449  267.8031 C   0  0  0  0  0  0  0  0  0  0  0  0
   94.8585   53.1669  268.3850 C   0  0  0  0  0  0  0  0  0  0  0  0
   94.1392   53.5776  269.5454 C   0  0  0  0  0  0  0  0  0  0  0  0
   93.2374   52.7442  270.0633 C   0  0  0  0  0  0  0  0  0  0  0  0
   92.9105   51.5224  269.5097 C   0  0  0  0  0  0  0  0  0  0  0  0
   90.2895   48.1235  266.3187 N   0  0  0  0  0  0  0  0  0  0  0  0
   89.7108   47.3399  265.2871 C   0  0  0  0  0  0  0  0  0  0  0  0
   90.4200   47.1068  264.0926 C   0  0  0  0  0  0  0  0  0  0  0  0
   89.9178   46.4353  263.0435 N   0  0  0  0  0  0  0  0  0  0  0  0
   88.6596   45.9305  263.1598 C   0  0  0  0  0  0  0  0  0  0  0  0
   87.8887   46.0861  264.3126 C   0  0  0  0  0  0  0  0  0  0  0  0
   88.4246   46.7965  265.3987 C   0  0  0  0  0  0  0  0  0  0  0  0
   87.4849   46.9002  266.9304 S   0  0  0  0  0  0  0  0  0  0  0  0
   86.1214   46.3894  266.6610 O   0  0  0  0  0  0  0  0  0  0  0  0
   87.6704   48.2235  267.4846 O   0  0  0  0  0  0  0  0  0  0  0  0
   88.3749   45.6310  268.0078 C   0  0  0  0  0  0  0  0  0  0  0  0
   92.5599   53.1152  271.2532 N   0  0  0  0  0  0  0  0  0  0  0  0
   92.3043   46.4224  265.9664 H   0  0  0  0  0  0  0  0  0  0  0  0
   91.2065   50.2655  267.4562 H   0  0  0  0  0  0  0  0  0  0  0  0
   97.2335   48.3589  267.0945 H   0  0  0  0  0  0  0  0  0  0  0  0
   96.8775   47.7283  268.7383 H   0  0  0  0  0  0  0  0  0  0  0  0
   96.8056   45.9472  267.1187 H   0  0  0  0  0  0  0  0  0  0  0  0
   95.1111   51.6336  266.9219 H   0  0  0  0  0  0  0  0  0  0  0  0
   95.6221   53.8039  267.9637 H   0  0  0  0  0  0  0  0  0  0  0  0
   94.3211   54.5427  269.9948 H   0  0  0  0  0  0  0  0  0  0  0  0
   92.1547   50.8942  269.9575 H   0  0  0  0  0  0  0  0  0  0  0  0
   91.4266   47.4906  264.0159 H   0  0  0  0  0  0  0  0  0  0  0  0
   88.2404   45.3872  262.3258 H   0  0  0  0  0  0  0  0  0  0  0  0
   86.8951   45.6665  264.3685 H   0  0  0  0  0  0  0  0  0  0  0  0
   87.8952   45.5880  268.9968 H   0  0  0  0  0  0  0  0  0  0  0  0
   88.3195   44.6416  267.5303 H   0  0  0  0  0  0  0  0  0  0  0  0
   89.4289   45.9236  268.1241 H   0  0  0  0  0  0  0  0  0  0  0  0
   91.9209   52.3912  271.5131 H   0  0  0  0  0  0  0  0  0  0  0  0
   93.2255   53.2513  271.9870 H   0  0  0  0  0  0  0  0  0  0  0  0
  1  4  2  0  0  0  0
  1  6  1  0  0  0  0
  1 11  1  0  0  0  0
  2  3  1  0  0  0  0
  2  5  2  0  0  0  0
  3  4  1  0  0  0  0
  3 17  2  0  0  0  0
  5  6  1  0  0  0  0
  5 10  1  0  0  0  0
  6  7  2  0  0  0  0
  7  8  1  0  0  0  0
  8  9  1  0  0  0  0
  9 10  2  0  0  0  0
 11 12  2  0  0  0  0
 11 16  1  0  0  0  0
 12 13  1  0  0  0  0
 13 14  2  0  0  0  0
 14 15  1  0  0  0  0
 15 16  2  0  0  0  0
 15 28  1  0  0  0  0
 17 18  1  0  0  0  0
 18 19  2  0  0  0  0
 18 23  1  0  0  0  0
 19 20  1  0  0  0  0
 20 21  2  0  0  0  0
 21 22  1  0  0  0  0
 22 23  2  0  0  0  0
 23 24  1  0  0  0  0
 24 25  2  0  0  0  0
 24 26  2  0  0  0  0
 24 27  1  0  0  0  0
  2 29  1  0  0  0  0
  4 30  1  0  0  0  0
  8 31  1  0  0  0  0
  8 32  1  0  0  0  0
  9 33  1  0  0  0  0
 12 34  1  0  0  0  0
 13 35  1  0  0  0  0
 14 36  1  0  0  0  0
 16 37  1  0  0  0  0
 19 38  1  0  0  0  0
 21 39  1  0  0  0  0
 22 40  1  0  0  0  0
 27 41  1  0  0  0  0
 27 42  1  0  0  0  0
 27 43  1  0  0  0  0
 28 44  1  0  0  0  0
 28 45  1  0  0  0  0
M  END
> <ID>
39

> <IC50[uM]>
5.299

$$$$
39
  -OEChem-05192314313D
 Structure written by MMmdl.
 45 48  0     0  0  0  0  0  0999 V2000
   93.2802   49.7985  267.6875 C   0  0  0  0  0  0  0  0  0  0  0  0
   92.5744   47.3376  266.4723 C   0  0  0  0  0  0  0  0  0  0  0  0
   91.6199   48.3263  266.6804 C   0  0  0  0  0  0  0  0  0  0  0  0
   91.9714   49.5220  267.2872 C   0  0  0  0  0  0  0  0  0  0  0  0
   93.9019   47.5331  266.9251 C   0  0  0  0  0  0  0  0  0  0  0  0
   94.2659   48.7775  267.5222 C   0  0  0  0  0  0  0  0  0  0  0  0
   95.5666   48.9595  267.9453 N   0  0  0  0  0  0  0  0  0  0  0  0
   96.4488   47.9549  267.7510 C   0  0  0  0  0  0  0  0  0  0  0  0
   96.0765   46.7394  267.2041 C   0  0  0  0  0  0  0  0  0  0  0  0
   94.7993   46.5295  266.7714 N   0  0  0  0  0  0  0  0  0  0  0  0
   93.5961   51.1154  268.3351 C   0  0  0  0  0  0  0  0  0  0  0  0
   94.5698   51.9449  267.8031 C   0  0  0  0  0  0  0  0  0  0  0  0
   94.8585   53.1669  268.3850 C   0  0  0  0  0  0  0  0  0  0  0  0
   94.1392   53.5776  269.5454 C   0  0  0  0  0  0  0  0  0  0  0  0
   93.2374   52.7442  270.0633 C   0  0  0  0  0  0  0  0  0  0  0  0
   92.9105   51.5224  269.5097 C   0  0  0  0  0  0  0  0  0  0  0  0
   90.2895   48.1235  266.3187 N   0  0  0  0  0  0  0  0  0  0  0  0
   89.7108   47.3399  265.2871 C   0  0  0  0  0  0  0  0  0  0  0  0
   90.4200   47.1068  264.0926 C   0  0  0  0  0  0  0  0  0  0  0  0
   89.9178   46.4353  263.0435 N   0  0  0  0  0  0  0  0  0  0  0  0
   88.6596   45.9305  263.1598 C   0  0  0  0  0  0  0  0  0  0  0  0
   87.8887   46.0861  264.3126 C   0  0  0  0  0  0  0  0  0  0  0  0
   88.4246   46.7965  265.3987 C   0  0  0  0  0  0  0  0  0  0  0  0
   87.4849   46.9002  266.9304 S   0  0  0  0  0  0  0  0  0  0  0  0
   86.1214   46.3894  266.6610 O   0  0  0  0  0  0  0  0  0  0  0  0
   87.6704   48.2235  267.4846 O   0  0  0  0  0  0  0  0  0  0  0  0
   88.3749   45.6310  268.0078 C   0  0  0  0  0  0  0  0  0  0  0  0
   92.5599   53.1152  271.2532 N   0  0  0  0  0  0  0  0  0  0  0  0
   92.2015   46.4267  266.9634 H   0  0  0  0  0  0  0  0  0  0  0  0
   92.6297   47.1721  265.3862 H   0  0  0  0  0  0  0  0  0  0  0  0
   91.2065   50.2655  267.4562 H   0  0  0  0  0  0  0  0  0  0  0  0
   97.4806   48.1057  268.0323 H   0  0  0  0  0  0  0  0  0  0  0  0
   96.8056   45.9472  267.1187 H   0  0  0  0  0  0  0  0  0  0  0  0
   95.1111   51.6336  266.9219 H   0  0  0  0  0  0  0  0  0  0  0  0
   95.6221   53.8039  267.9637 H   0  0  0  0  0  0  0  0  0  0  0  0
   94.8809   53.7825  270.3315 H   0  0  0  0  0  0  0  0  0  0  0  0
   93.6114   54.5077  269.2878 H   0  0  0  0  0  0  0  0  0  0  0  0
   92.1547   50.8942  269.9575 H   0  0  0  0  0  0  0  0  0  0  0  0
   91.4266   47.4906  264.0159 H   0  0  0  0  0  0  0  0  0  0  0  0
   88.2404   45.3872  262.3258 H   0  0  0  0  0  0  0  0  0  0  0  0
   86.8951   45.6665  264.3685 H   0  0  0  0  0  0  0  0  0  0  0  0
   87.8952   45.5880  268.9968 H   0  0  0  0  0  0  0  0  0  0  0  0
   88.3195   44.6416  267.5303 H   0  0  0  0  0  0  0  0  0  0  0  0
   89.4289   45.9236  268.1241 H   0  0  0  0  0  0  0  0  0  0  0  0
   91.9085   52.4157  271.5470 H   0  0  0  0  0  0  0  0  0  0  0  0
  1  4  2  0  0  0  0
  1  6  1  0  0  0  0
  1 11  1  0  0  0  0
  2  3  1  0  0  0  0
  2  5  1  0  0  0  0
  3  4  1  0  0  0  0
  3 17  2  0  0  0  0
  5  6  2  0  0  0  0
  5 10  1  0  0  0  0
  6  7  1  0  0  0  0
  7  8  2  0  0  0  0
  8  9  1  0  0  0  0
  9 10  2  0  0  0  0
 11 12  1  0  0  0  0
 11 16  2  0  0  0  0
 12 13  2  0  0  0  0
 13 14  1  0  0  0  0
 14 15  1  0  0  0  0
 15 16  1  0  0  0  0
 15 28  2  0  0  0  0
 17 18  1  0  0  0  0
 18 19  2  0  0  0  0
 18 23  1  0  0  0  0
 19 20  1  0  0  0  0
 20 21  2  0  0  0  0
 21 22  1  0  0  0  0
 22 23  2  0  0  0  0
 23 24  1  0  0  0  0
 24 25  2  0  0  0  0
 24 26  2  0  0  0  0
 24 27  1  0  0  0  0
  2 29  1  0  0  0  0
  2 30  1  0  0  0  0
  4 31  1  0  0  0  0
  8 32  1  0  0  0  0
  9 33  1  0  0  0  0
 12 34  1  0  0  0  0
 13 35  1  0  0  0  0
 14 36  1  0  0  0  0
 14 37  1  0  0  0  0
 16 38  1  0  0  0  0
 19 39  1  0  0  0  0
 21 40  1  0  0  0  0
 22 41  1  0  0  0  0
 27 42  1  0  0  0  0
 27 43  1  0  0  0  0
 27 44  1  0  0  0  0
 28 45  1  0  0  0  0
M  END
> <ID>
39

> <IC50[uM]>
5.299

$$$$
39
  -OEChem-05192314313D
 Structure written by MMmdl.
 45 48  0     0  0  0  0  0  0999 V2000
   93.2802   49.7985  267.6875 C   0  0  0  0  0  0  0  0  0  0  0  0
   92.5744   47.3376  266.4723 C   0  0  0  0  0  0  0  0  0  0  0  0
   91.6199   48.3263  266.6804 C   0  0  0  0  0  0  0  0  0  0  0  0
   91.9714   49.5220  267.2872 C   0  0  0  0  0  0  0  0  0  0  0  0
   93.9019   47.5331  266.9251 C   0  0  0  0  0  0  0  0  0  0  0  0
   94.2659   48.7775  267.5222 C   0  0  0  0  0  0  0  0  0  0  0  0
   95.5666   48.9595  267.9453 N   0  0  0  0  0  0  0  0  0  0  0  0
   96.4488   47.9549  267.7510 C   0  0  0  0  0  0  0  0  0  0  0  0
   96.0765   46.7394  267.2041 C   0  0  0  0  0  0  0  0  0  0  0  0
   94.7993   46.5295  266.7714 N   0  0  0  0  0  0  0  0  0  0  0  0
   93.5961   51.1154  268.3351 C   0  0  0  0  0  0  0  0  0  0  0  0
   94.5698   51.9449  267.8031 C   0  0  0  0  0  0  0  0  0  0  0  0
   94.8585   53.1669  268.3850 C   0  0  0  0  0  0  0  0  0  0  0  0
   94.1392   53.5776  269.5454 C   0  0  0  0  0  0  0  0  0  0  0  0
   93.2374   52.7442  270.0633 C   0  0  0  0  0  0  0  0  0  0  0  0
   92.9105   51.5224  269.5097 C   0  0  0  0  0  0  0  0  0  0  0  0
   90.2895   48.1235  266.3187 N   0  0  0  0  0  0  0  0  0  0  0  0
   89.7108   47.3399  265.2871 C   0  0  0  0  0  0  0  0  0  0  0  0
   90.4200   47.1068  264.0926 C   0  0  0  0  0  0  0  0  0  0  0  0
   89.9178   46.4353  263.0435 N   0  0  0  0  0  0  0  0  0  0  0  0
   88.6596   45.9305  263.1598 C   0  0  0  0  0  0  0  0  0  0  0  0
   87.8887   46.0861  264.3126 C   0  0  0  0  0  0  0  0  0  0  0  0
   88.4246   46.7965  265.3987 C   0  0  0  0  0  0  0  0  0  0  0  0
   87.4849   46.9002  266.9304 S   0  0  0  0  0  0  0  0  0  0  0  0
   86.1214   46.3894  266.6610 O   0  0  0  0  0  0  0  0  0  0  0  0
   87.6704   48.2235  267.4846 O   0  0  0  0  0  0  0  0  0  0  0  0
   88.3749   45.6310  268.0078 C   0  0  0  0  0  0  0  0  0  0  0  0
   92.5599   53.1152  271.2532 N   0  0  0  0  0  0  0  0  0  0  0  0
   92.2015   46.4267  266.9634 H   0  0  0  0  0  0  0  0  0  0  0  0
   92.6297   47.1721  265.3862 H   0  0  0  0  0  0  0  0  0  0  0  0
   91.2065   50.2655  267.4562 H   0  0  0  0  0  0  0  0  0  0  0  0
   97.4806   48.1057  268.0323 H   0  0  0  0  0  0  0  0  0  0  0  0
   96.8056   45.9472  267.1187 H   0  0  0  0  0  0  0  0  0  0  0  0
   95.5067   51.3686  267.8039 H   0  0  0  0  0  0  0  0  0  0  0  0
   94.2695   52.1551  266.7660 H   0  0  0  0  0  0  0  0  0  0  0  0
   95.6221   53.8039  267.9637 H   0  0  0  0  0  0  0  0  0  0  0  0
   94.3211   54.5427  269.9948 H   0  0  0  0  0  0  0  0  0  0  0  0
   92.1547   50.8942  269.9575 H   0  0  0  0  0  0  0  0  0  0  0  0
   91.4266   47.4906  264.0159 H   0  0  0  0  0  0  0  0  0  0  0  0
   88.2404   45.3872  262.3258 H   0  0  0  0  0  0  0  0  0  0  0  0
   86.8951   45.6665  264.3685 H   0  0  0  0  0  0  0  0  0  0  0  0
   87.8952   45.5880  268.9968 H   0  0  0  0  0  0  0  0  0  0  0  0
   88.3195   44.6416  267.5303 H   0  0  0  0  0  0  0  0  0  0  0  0
   89.4289   45.9236  268.1241 H   0  0  0  0  0  0  0  0  0  0  0  0
   91.9085   52.4157  271.5470 H   0  0  0  0  0  0  0  0  0  0  0  0
  1  4  2  0  0  0  0
  1  6  1  0  0  0  0
  1 11  1  0  0  0  0
  2  3  1  0  0  0  0
  2  5  1  0  0  0  0
  3  4  1  0  0  0  0
  3 17  2  0  0  0  0
  5  6  2  0  0  0  0
  5 10  1  0  0  0  0
  6  7  1  0  0  0  0
  7  8  2  0  0  0  0
  8  9  1  0  0  0  0
  9 10  2  0  0  0  0
 11 12  1  0  0  0  0
 11 16  2  0  0  0  0
 12 13  1  0  0  0  0
 13 14  2  0  0  0  0
 14 15  1  0  0  0  0
 15 16  1  0  0  0  0
 15 28  2  0  0  0  0
 17 18  1  0  0  0  0
 18 19  2  0  0  0  0
 18 23  1  0  0  0  0
 19 20  1  0  0  0  0
 20 21  2  0  0  0  0
 21 22  1  0  0  0  0
 22 23  2  0  0  0  0
 23 24  1  0  0  0  0
 24 25  2  0  0  0  0
 24 26  2  0  0  0  0
 24 27  1  0  0  0  0
  2 29  1  0  0  0  0
  2 30  1  0  0  0  0
  4 31  1  0  0  0  0
  8 32  1  0  0  0  0
  9 33  1  0  0  0  0
 12 34  1  0  0  0  0
 12 35  1  0  0  0  0
 13 36  1  0  0  0  0
 14 37  1  0  0  0  0
 16 38  1  0  0  0  0
 19 39  1  0  0  0  0
 21 40  1  0  0  0  0
 22 41  1  0  0  0  0
 27 42  1  0  0  0  0
 27 43  1  0  0  0  0
 27 44  1  0  0  0  0
 28 45  1  0  0  0  0
M  END
> <ID>
39

> <IC50[uM]>
5.299

$$$$
39
  -OEChem-05192314313D
 Structure written by MMmdl.
 45 48  0     0  0  0  0  0  0999 V2000
   93.2802   49.7985  267.6875 C   0  0  0  0  0  0  0  0  0  0  0  0
   92.5744   47.3376  266.4723 C   0  0  0  0  0  0  0  0  0  0  0  0
   91.6199   48.3263  266.6804 C   0  0  0  0  0  0  0  0  0  0  0  0
   91.9714   49.5220  267.2872 C   0  0  0  0  0  0  0  0  0  0  0  0
   93.9019   47.5331  266.9251 C   0  0  0  0  0  0  0  0  0  0  0  0
   94.2659   48.7775  267.5222 C   0  0  0  0  0  0  0  0  0  0  0  0
   95.5666   48.9595  267.9453 N   0  0  0  0  0  0  0  0  0  0  0  0
   96.4488   47.9549  267.7510 C   0  0  0  0  0  0  0  0  0  0  0  0
   96.0765   46.7394  267.2041 C   0  0  0  0  0  0  0  0  0  0  0  0
   94.7993   46.5295  266.7714 N   0  0  0  0  0  0  0  0  0  0  0  0
   93.5961   51.1154  268.3351 C   0  0  0  0  0  0  0  0  0  0  0  0
   94.5698   51.9449  267.8031 C   0  0  0  0  0  0  0  0  0  0  0  0
   94.8585   53.1669  268.3850 C   0  0  0  0  0  0  0  0  0  0  0  0
   94.1392   53.5776  269.5454 C   0  0  0  0  0  0  0  0  0  0  0  0
   93.2374   52.7442  270.0633 C   0  0  0  0  0  0  0  0  0  0  0  0
   92.9105   51.5224  269.5097 C   0  0  0  0  0  0  0  0  0  0  0  0
   90.2895   48.1235  266.3187 N   0  0  0  0  0  0  0  0  0  0  0  0
   89.7108   47.3399  265.2871 C   0  0  0  0  0  0  0  0  0  0  0  0
   90.4200   47.1068  264.0926 C   0  0  0  0  0  0  0  0  0  0  0  0
   89.9178   46.4353  263.0435 N   0  0  0  0  0  0  0  0  0  0  0  0
   88.6596   45.9305  263.1598 C   0  0  0  0  0  0  0  0  0  0  0  0
   87.8887   46.0861  264.3126 C   0  0  0  0  0  0  0  0  0  0  0  0
   88.4246   46.7965  265.3987 C   0  0  0  0  0  0  0  0  0  0  0  0
   87.4849   46.9002  266.9304 S   0  0  0  0  0  0  0  0  0  0  0  0
   86.1214   46.3894  266.6610 O   0  0  0  0  0  0  0  0  0  0  0  0
   87.6704   48.2235  267.4846 O   0  0  0  0  0  0  0  0  0  0  0  0
   88.3749   45.6310  268.0078 C   0  0  0  0  0  0  0  0  0  0  0  0
   92.5599   53.1152  271.2532 N   0  0  0  0  0  0  0  0  0  0  0  0
   92.2015   46.4267  266.9634 H   0  0  0  0  0  0  0  0  0  0  0  0
   92.6297   47.1721  265.3862 H   0  0  0  0  0  0  0  0  0  0  0  0
   91.2065   50.2655  267.4562 H   0  0  0  0  0  0  0  0  0  0  0  0
   97.4806   48.1057  268.0323 H   0  0  0  0  0  0  0  0  0  0  0  0
   96.8056   45.9472  267.1187 H   0  0  0  0  0  0  0  0  0  0  0  0
   95.1111   51.6336  266.9219 H   0  0  0  0  0  0  0  0  0  0  0  0
   95.6221   53.8039  267.9637 H   0  0  0  0  0  0  0  0  0  0  0  0
   94.3211   54.5427  269.9948 H   0  0  0  0  0  0  0  0  0  0  0  0
   91.8376   51.5496  269.2687 H   0  0  0  0  0  0  0  0  0  0  0  0
   93.0946   50.7563  270.2773 H   0  0  0  0  0  0  0  0  0  0  0  0
   91.4266   47.4906  264.0159 H   0  0  0  0  0  0  0  0  0  0  0  0
   88.2404   45.3872  262.3258 H   0  0  0  0  0  0  0  0  0  0  0  0
   86.8951   45.6665  264.3685 H   0  0  0  0  0  0  0  0  0  0  0  0
   87.8952   45.5880  268.9968 H   0  0  0  0  0  0  0  0  0  0  0  0
   88.3195   44.6416  267.5303 H   0  0  0  0  0  0  0  0  0  0  0  0
   89.4289   45.9236  268.1241 H   0  0  0  0  0  0  0  0  0  0  0  0
   91.9085   52.4157  271.5470 H   0  0  0  0  0  0  0  0  0  0  0  0
  1  4  2  0  0  0  0
  1  6  1  0  0  0  0
  1 11  1  0  0  0  0
  2  3  1  0  0  0  0
  2  5  1  0  0  0  0
  3  4  1  0  0  0  0
  3 17  2  0  0  0  0
  5  6  2  0  0  0  0
  5 10  1  0  0  0  0
  6  7  1  0  0  0  0
  7  8  2  0  0  0  0
  8  9  1  0  0  0  0
  9 10  2  0  0  0  0
 11 12  2  0  0  0  0
 11 16  1  0  0  0  0
 12 13  1  0  0  0  0
 13 14  2  0  0  0  0
 14 15  1  0  0  0  0
 15 16  1  0  0  0  0
 15 28  2  0  0  0  0
 17 18  1  0  0  0  0
 18 19  2  0  0  0  0
 18 23  1  0  0  0  0
 19 20  1  0  0  0  0
 20 21  2  0  0  0  0
 21 22  1  0  0  0  0
 22 23  2  0  0  0  0
 23 24  1  0  0  0  0
 24 25  2  0  0  0  0
 24 26  2  0  0  0  0
 24 27  1  0  0  0  0
  2 29  1  0  0  0  0
  2 30  1  0  0  0  0
  4 31  1  0  0  0  0
  8 32  1  0  0  0  0
  9 33  1  0  0  0  0
 12 34  1  0  0  0  0
 13 35  1  0  0  0  0
 14 36  1  0  0  0  0
 16 37  1  0  0  0  0
 16 38  1  0  0  0  0
 19 39  1  0  0  0  0
 21 40  1  0  0  0  0
 22 41  1  0  0  0  0
 27 42  1  0  0  0  0
 27 43  1  0  0  0  0
 27 44  1  0  0  0  0
 28 45  1  0  0  0  0
M  END
> <ID>
39

> <IC50[uM]>
5.299

$$$$
39
  -OEChem-05192314313D
 Structure written by MMmdl.
 45 48  0     0  0  0  0  0  0999 V2000
   93.2802   49.7985  267.6875 C   0  0  0  0  0  0  0  0  0  0  0  0
   92.5744   47.3376  266.4723 C   0  0  0  0  0  0  0  0  0  0  0  0
   91.6199   48.3263  266.6804 C   0  0  0  0  0  0  0  0  0  0  0  0
   91.9714   49.5220  267.2872 C   0  0  0  0  0  0  0  0  0  0  0  0
   93.9019   47.5331  266.9251 C   0  0  0  0  0  0  0  0  0  0  0  0
   94.2659   48.7775  267.5222 C   0  0  0  0  0  0  0  0  0  0  0  0
   95.5666   48.9595  267.9453 N   0  0  0  0  0  0  0  0  0  0  0  0
   96.4488   47.9549  267.7510 C   0  0  0  0  0  0  0  0  0  0  0  0
   96.0765   46.7394  267.2041 C   0  0  0  0  0  0  0  0  0  0  0  0
   94.7993   46.5295  266.7714 N   0  0  0  0  0  0  0  0  0  0  0  0
   93.5961   51.1154  268.3351 C   0  0  0  0  0  0  0  0  0  0  0  0
   94.5698   51.9449  267.8031 C   0  0  0  0  0  0  0  0  0  0  0  0
   94.8585   53.1669  268.3850 C   0  0  0  0  0  0  0  0  0  0  0  0
   94.1392   53.5776  269.5454 C   0  0  0  0  0  0  0  0  0  0  0  0
   93.2374   52.7442  270.0633 C   0  0  0  0  0  0  0  0  0  0  0  0
   92.9105   51.5224  269.5097 C   0  0  0  0  0  0  0  0  0  0  0  0
   90.2895   48.1235  266.3187 N   0  0  0  0  0  0  0  0  0  0  0  0
   89.7108   47.3399  265.2871 C   0  0  0  0  0  0  0  0  0  0  0  0
   90.4200   47.1068  264.0926 C   0  0  0  0  0  0  0  0  0  0  0  0
   89.9178   46.4353  263.0435 N   0  0  0  0  0  0  0  0  0  0  0  0
   88.6596   45.9305  263.1598 C   0  0  0  0  0  0  0  0  0  0  0  0
   87.8887   46.0861  264.3126 C   0  0  0  0  0  0  0  0  0  0  0  0
   88.4246   46.7965  265.3987 C   0  0  0  0  0  0  0  0  0  0  0  0
   87.4849   46.9002  266.9304 S   0  0  0  0  0  0  0  0  0  0  0  0
   86.1214   46.3894  266.6610 O   0  0  0  0  0  0  0  0  0  0  0  0
   87.6704   48.2235  267.4846 O   0  0  0  0  0  0  0  0  0  0  0  0
   88.3749   45.6310  268.0078 C   0  0  0  0  0  0  0  0  0  0  0  0
   92.5599   53.1152  271.2532 N   0  0  0  0  0  0  0  0  0  0  0  0
   92.3043   46.4224  265.9664 H   0  0  0  0  0  0  0  0  0  0  0  0
   91.3510   49.6005  268.1921 H   0  0  0  0  0  0  0  0  0  0  0  0
   91.6922   50.3178  266.5810 H   0  0  0  0  0  0  0  0  0  0  0  0
   97.4806   48.1057  268.0323 H   0  0  0  0  0  0  0  0  0  0  0  0
   96.8056   45.9472  267.1187 H   0  0  0  0  0  0  0  0  0  0  0  0
   95.1111   51.6336  266.9219 H   0  0  0  0  0  0  0  0  0  0  0  0
   95.6221   53.8039  267.9637 H   0  0  0  0  0  0  0  0  0  0  0  0
   94.8809   53.7825  270.3315 H   0  0  0  0  0  0  0  0  0  0  0  0
   93.6114   54.5077  269.2878 H   0  0  0  0  0  0  0  0  0  0  0  0
   92.1547   50.8942  269.9575 H   0  0  0  0  0  0  0  0  0  0  0  0
   91.4266   47.4906  264.0159 H   0  0  0  0  0  0  0  0  0  0  0  0
   88.2404   45.3872  262.3258 H   0  0  0  0  0  0  0  0  0  0  0  0
   86.8951   45.6665  264.3685 H   0  0  0  0  0  0  0  0  0  0  0  0
   87.8952   45.5880  268.9968 H   0  0  0  0  0  0  0  0  0  0  0  0
   88.3195   44.6416  267.5303 H   0  0  0  0  0  0  0  0  0  0  0  0
   89.4289   45.9236  268.1241 H   0  0  0  0  0  0  0  0  0  0  0  0
   91.9085   52.4157  271.5470 H   0  0  0  0  0  0  0  0  0  0  0  0
  1  4  1  0  0  0  0
  1  6  2  0  0  0  0
  1 11  1  0  0  0  0
  2  3  1  0  0  0  0
  2  5  2  0  0  0  0
  3  4  1  0  0  0  0
  3 17  2  0  0  0  0
  5  6  1  0  0  0  0
  5 10  1  0  0  0  0
  6  7  1  0  0  0  0
  7  8  2  0  0  0  0
  8  9  1  0  0  0  0
  9 10  2  0  0  0  0
 11 12  1  0  0  0  0
 11 16  2  0  0  0  0
 12 13  2  0  0  0  0
 13 14  1  0  0  0  0
 14 15  1  0  0  0  0
 15 16  1  0  0  0  0
 15 28  2  0  0  0  0
 17 18  1  0  0  0  0
 18 19  2  0  0  0  0
 18 23  1  0  0  0  0
 19 20  1  0  0  0  0
 20 21  2  0  0  0  0
 21 22  1  0  0  0  0
 22 23  2  0  0  0  0
 23 24  1  0  0  0  0
 24 25  2  0  0  0  0
 24 26  2  0  0  0  0
 24 27  1  0  0  0  0
  2 29  1  0  0  0  0
  4 30  1  0  0  0  0
  4 31  1  0  0  0  0
  8 32  1  0  0  0  0
  9 33  1  0  0  0  0
 12 34  1  0  0  0  0
 13 35  1  0  0  0  0
 14 36  1  0  0  0  0
 14 37  1  0  0  0  0
 16 38  1  0  0  0  0
 19 39  1  0  0  0  0
 21 40  1  0  0  0  0
 22 41  1  0  0  0  0
 27 42  1  0  0  0  0
 27 43  1  0  0  0  0
 27 44  1  0  0  0  0
 28 45  1  0  0  0  0
M  END
> <ID>
39

> <IC50[uM]>
5.299

$$$$
39
  -OEChem-05192314313D
 Structure written by MMmdl.
 45 48  0     0  0  0  0  0  0999 V2000
   93.2802   49.7985  267.6875 C   0  0  0  0  0  0  0  0  0  0  0  0
   92.5744   47.3376  266.4723 C   0  0  0  0  0  0  0  0  0  0  0  0
   91.6199   48.3263  266.6804 C   0  0  0  0  0  0  0  0  0  0  0  0
   91.9714   49.5220  267.2872 C   0  0  0  0  0  0  0  0  0  0  0  0
   93.9019   47.5331  266.9251 C   0  0  0  0  0  0  0  0  0  0  0  0
   94.2659   48.7775  267.5222 C   0  0  0  0  0  0  0  0  0  0  0  0
   95.5666   48.9595  267.9453 N   0  0  0  0  0  0  0  0  0  0  0  0
   96.4488   47.9549  267.7510 C   0  0  0  0  0  0  0  0  0  0  0  0
   96.0765   46.7394  267.2041 C   0  0  0  0  0  0  0  0  0  0  0  0
   94.7993   46.5295  266.7714 N   0  0  0  0  0  0  0  0  0  0  0  0
   93.5961   51.1154  268.3351 C   0  0  0  0  0  0  0  0  0  0  0  0
   94.5698   51.9449  267.8031 C   0  0  0  0  0  0  0  0  0  0  0  0
   94.8585   53.1669  268.3850 C   0  0  0  0  0  0  0  0  0  0  0  0
   94.1392   53.5776  269.5454 C   0  0  0  0  0  0  0  0  0  0  0  0
   93.2374   52.7442  270.0633 C   0  0  0  0  0  0  0  0  0  0  0  0
   92.9105   51.5224  269.5097 C   0  0  0  0  0  0  0  0  0  0  0  0
   90.2895   48.1235  266.3187 N   0  0  0  0  0  0  0  0  0  0  0  0
   89.7108   47.3399  265.2871 C   0  0  0  0  0  0  0  0  0  0  0  0
   90.4200   47.1068  264.0926 C   0  0  0  0  0  0  0  0  0  0  0  0
   89.9178   46.4353  263.0435 N   0  0  0  0  0  0  0  0  0  0  0  0
   88.6596   45.9305  263.1598 C   0  0  0  0  0  0  0  0  0  0  0  0
   87.8887   46.0861  264.3126 C   0  0  0  0  0  0  0  0  0  0  0  0
   88.4246   46.7965  265.3987 C   0  0  0  0  0  0  0  0  0  0  0  0
   87.4849   46.9002  266.9304 S   0  0  0  0  0  0  0  0  0  0  0  0
   86.1214   46.3894  266.6610 O   0  0  0  0  0  0  0  0  0  0  0  0
   87.6704   48.2235  267.4846 O   0  0  0  0  0  0  0  0  0  0  0  0
   88.3749   45.6310  268.0078 C   0  0  0  0  0  0  0  0  0  0  0  0
   92.5599   53.1152  271.2532 N   0  0  0  0  0  0  0  0  0  0  0  0
   92.3043   46.4224  265.9664 H   0  0  0  0  0  0  0  0  0  0  0  0
   91.3510   49.6005  268.1921 H   0  0  0  0  0  0  0  0  0  0  0  0
   91.6922   50.3178  266.5810 H   0  0  0  0  0  0  0  0  0  0  0  0
   97.4806   48.1057  268.0323 H   0  0  0  0  0  0  0  0  0  0  0  0
   96.8056   45.9472  267.1187 H   0  0  0  0  0  0  0  0  0  0  0  0
   95.5067   51.3686  267.8039 H   0  0  0  0  0  0  0  0  0  0  0  0
   94.2695   52.1551  266.7660 H   0  0  0  0  0  0  0  0  0  0  0  0
   95.6221   53.8039  267.9637 H   0  0  0  0  0  0  0  0  0  0  0  0
   94.3211   54.5427  269.9948 H   0  0  0  0  0  0  0  0  0  0  0  0
   92.1547   50.8942  269.9575 H   0  0  0  0  0  0  0  0  0  0  0  0
   91.4266   47.4906  264.0159 H   0  0  0  0  0  0  0  0  0  0  0  0
   88.2404   45.3872  262.3258 H   0  0  0  0  0  0  0  0  0  0  0  0
   86.8951   45.6665  264.3685 H   0  0  0  0  0  0  0  0  0  0  0  0
   87.8952   45.5880  268.9968 H   0  0  0  0  0  0  0  0  0  0  0  0
   88.3195   44.6416  267.5303 H   0  0  0  0  0  0  0  0  0  0  0  0
   89.4289   45.9236  268.1241 H   0  0  0  0  0  0  0  0  0  0  0  0
   91.9085   52.4157  271.5470 H   0  0  0  0  0  0  0  0  0  0  0  0
  1  4  1  0  0  0  0
  1  6  2  0  0  0  0
  1 11  1  0  0  0  0
  2  3  1  0  0  0  0
  2  5  2  0  0  0  0
  3  4  1  0  0  0  0
  3 17  2  0  0  0  0
  5  6  1  0  0  0  0
  5 10  1  0  0  0  0
  6  7  1  0  0  0  0
  7  8  2  0  0  0  0
  8  9  1  0  0  0  0
  9 10  2  0  0  0  0
 11 12  1  0  0  0  0
 11 16  2  0  0  0  0
 12 13  1  0  0  0  0
 13 14  2  0  0  0  0
 14 15  1  0  0  0  0
 15 16  1  0  0  0  0
 15 28  2  0  0  0  0
 17 18  1  0  0  0  0
 18 19  2  0  0  0  0
 18 23  1  0  0  0  0
 19 20  1  0  0  0  0
 20 21  2  0  0  0  0
 21 22  1  0  0  0  0
 22 23  2  0  0  0  0
 23 24  1  0  0  0  0
 24 25  2  0  0  0  0
 24 26  2  0  0  0  0
 24 27  1  0  0  0  0
  2 29  1  0  0  0  0
  4 30  1  0  0  0  0
  4 31  1  0  0  0  0
  8 32  1  0  0  0  0
  9 33  1  0  0  0  0
 12 34  1  0  0  0  0
 12 35  1  0  0  0  0
 13 36  1  0  0  0  0
 14 37  1  0  0  0  0
 16 38  1  0  0  0  0
 19 39  1  0  0  0  0
 21 40  1  0  0  0  0
 22 41  1  0  0  0  0
 27 42  1  0  0  0  0
 27 43  1  0  0  0  0
 27 44  1  0  0  0  0
 28 45  1  0  0  0  0
M  END
> <ID>
39

> <IC50[uM]>
5.299

$$$$
39
  -OEChem-05192314313D
 Structure written by MMmdl.
 45 48  0     0  0  0  0  0  0999 V2000
   93.2802   49.7985  267.6875 C   0  0  0  0  0  0  0  0  0  0  0  0
   92.5744   47.3376  266.4723 C   0  0  0  0  0  0  0  0  0  0  0  0
   91.6199   48.3263  266.6804 C   0  0  0  0  0  0  0  0  0  0  0  0
   91.9714   49.5220  267.2872 C   0  0  0  0  0  0  0  0  0  0  0  0
   93.9019   47.5331  266.9251 C   0  0  0  0  0  0  0  0  0  0  0  0
   94.2659   48.7775  267.5222 C   0  0  0  0  0  0  0  0  0  0  0  0
   95.5666   48.9595  267.9453 N   0  0  0  0  0  0  0  0  0  0  0  0
   96.4488   47.9549  267.7510 C   0  0  0  0  0  0  0  0  0  0  0  0
   96.0765   46.7394  267.2041 C   0  0  0  0  0  0  0  0  0  0  0  0
   94.7993   46.5295  266.7714 N   0  0  0  0  0  0  0  0  0  0  0  0
   93.5961   51.1154  268.3351 C   0  0  0  0  0  0  0  0  0  0  0  0
   94.5698   51.9449  267.8031 C   0  0  0  0  0  0  0  0  0  0  0  0
   94.8585   53.1669  268.3850 C   0  0  0  0  0  0  0  0  0  0  0  0
   94.1392   53.5776  269.5454 C   0  0  0  0  0  0  0  0  0  0  0  0
   93.2374   52.7442  270.0633 C   0  0  0  0  0  0  0  0  0  0  0  0
   92.9105   51.5224  269.5097 C   0  0  0  0  0  0  0  0  0  0  0  0
   90.2895   48.1235  266.3187 N   0  0  0  0  0  0  0  0  0  0  0  0
   89.7108   47.3399  265.2871 C   0  0  0  0  0  0  0  0  0  0  0  0
   90.4200   47.1068  264.0926 C   0  0  0  0  0  0  0  0  0  0  0  0
   89.9178   46.4353  263.0435 N   0  0  0  0  0  0  0  0  0  0  0  0
   88.6596   45.9305  263.1598 C   0  0  0  0  0  0  0  0  0  0  0  0
   87.8887   46.0861  264.3126 C   0  0  0  0  0  0  0  0  0  0  0  0
   88.4246   46.7965  265.3987 C   0  0  0  0  0  0  0  0  0  0  0  0
   87.4849   46.9002  266.9304 S   0  0  0  0  0  0  0  0  0  0  0  0
   86.1214   46.3894  266.6610 O   0  0  0  0  0  0  0  0  0  0  0  0
   87.6704   48.2235  267.4846 O   0  0  0  0  0  0  0  0  0  0  0  0
   88.3749   45.6310  268.0078 C   0  0  0  0  0  0  0  0  0  0  0  0
   92.5599   53.1152  271.2532 N   0  0  0  0  0  0  0  0  0  0  0  0
   92.3043   46.4224  265.9664 H   0  0  0  0  0  0  0  0  0  0  0  0
   91.3510   49.6005  268.1921 H   0  0  0  0  0  0  0  0  0  0  0  0
   91.6922   50.3178  266.5810 H   0  0  0  0  0  0  0  0  0  0  0  0
   97.4806   48.1057  268.0323 H   0  0  0  0  0  0  0  0  0  0  0  0
   96.8056   45.9472  267.1187 H   0  0  0  0  0  0  0  0  0  0  0  0
   95.1111   51.6336  266.9219 H   0  0  0  0  0  0  0  0  0  0  0  0
   95.6221   53.8039  267.9637 H   0  0  0  0  0  0  0  0  0  0  0  0
   94.3211   54.5427  269.9948 H   0  0  0  0  0  0  0  0  0  0  0  0
   91.8376   51.5496  269.2687 H   0  0  0  0  0  0  0  0  0  0  0  0
   93.0946   50.7563  270.2773 H   0  0  0  0  0  0  0  0  0  0  0  0
   91.4266   47.4906  264.0159 H   0  0  0  0  0  0  0  0  0  0  0  0
   88.2404   45.3872  262.3258 H   0  0  0  0  0  0  0  0  0  0  0  0
   86.8951   45.6665  264.3685 H   0  0  0  0  0  0  0  0  0  0  0  0
   87.8952   45.5880  268.9968 H   0  0  0  0  0  0  0  0  0  0  0  0
   88.3195   44.6416  267.5303 H   0  0  0  0  0  0  0  0  0  0  0  0
   89.4289   45.9236  268.1241 H   0  0  0  0  0  0  0  0  0  0  0  0
   91.9085   52.4157  271.5470 H   0  0  0  0  0  0  0  0  0  0  0  0
  1  4  1  0  0  0  0
  1  6  2  0  0  0  0
  1 11  1  0  0  0  0
  2  3  1  0  0  0  0
  2  5  2  0  0  0  0
  3  4  1  0  0  0  0
  3 17  2  0  0  0  0
  5  6  1  0  0  0  0
  5 10  1  0  0  0  0
  6  7  1  0  0  0  0
  7  8  2  0  0  0  0
  8  9  1  0  0  0  0
  9 10  2  0  0  0  0
 11 12  2  0  0  0  0
 11 16  1  0  0  0  0
 12 13  1  0  0  0  0
 13 14  2  0  0  0  0
 14 15  1  0  0  0  0
 15 16  1  0  0  0  0
 15 28  2  0  0  0  0
 17 18  1  0  0  0  0
 18 19  2  0  0  0  0
 18 23  1  0  0  0  0
 19 20  1  0  0  0  0
 20 21  2  0  0  0  0
 21 22  1  0  0  0  0
 22 23  2  0  0  0  0
 23 24  1  0  0  0  0
 24 25  2  0  0  0  0
 24 26  2  0  0  0  0
 24 27  1  0  0  0  0
  2 29  1  0  0  0  0
  4 30  1  0  0  0  0
  4 31  1  0  0  0  0
  8 32  1  0  0  0  0
  9 33  1  0  0  0  0
 12 34  1  0  0  0  0
 13 35  1  0  0  0  0
 14 36  1  0  0  0  0
 16 37  1  0  0  0  0
 16 38  1  0  0  0  0
 19 39  1  0  0  0  0
 21 40  1  0  0  0  0
 22 41  1  0  0  0  0
 27 42  1  0  0  0  0
 27 43  1  0  0  0  0
 27 44  1  0  0  0  0
 28 45  1  0  0  0  0
M  END
> <ID>
39

> <IC50[uM]>
5.299

$$$$
39
  -OEChem-05192314313D
 Structure written by MMmdl.
 45 48  0     1  0  0  0  0  0999 V2000
   93.2802   49.7985  267.6875 C   0  0  0  0  0  0  0  0  0  0  0  0
   92.5744   47.3376  266.4723 C   0  0  0  0  0  0  0  0  0  0  0  0
   91.6199   48.3263  266.6804 C   0  0  0  0  0  0  0  0  0  0  0  0
   91.9714   49.5220  267.2872 C   0  0  0  0  0  0  0  0  0  0  0  0
   93.9019   47.5331  266.9251 C   0  0  0  0  0  0  0  0  0  0  0  0
   94.2659   48.7775  267.5222 C   0  0  0  0  0  0  0  0  0  0  0  0
   95.5666   48.9595  267.9453 N   0  0  0  0  0  0  0  0  0  0  0  0
   96.4488   47.9549  267.7510 C   0  0  0  0  0  0  0  0  0  0  0  0
   96.0765   46.7394  267.2041 C   0  0  0  0  0  0  0  0  0  0  0  0
   94.7993   46.5295  266.7714 N   0  0  0  0  0  0  0  0  0  0  0  0
   93.5961   51.1154  268.3351 C   0  0  0  0  0  0  0  0  0  0  0  0
   94.5698   51.9449  267.8031 C   0  0  0  0  0  0  0  0  0  0  0  0
   94.8585   53.1669  268.3850 C   0  0  0  0  0  0  0  0  0  0  0  0
   94.1392   53.5776  269.5454 C   0  0  0  0  0  0  0  0  0  0  0  0
   93.2374   52.7442  270.0633 C   0  0  0  0  0  0  0  0  0  0  0  0
   92.9105   51.5224  269.5097 C   0  0  0  0  0  0  0  0  0  0  0  0
   90.2895   48.1235  266.3187 N   0  0  0  0  0  0  0  0  0  0  0  0
   89.7108   47.3399  265.2871 C   0  0  0  0  0  0  0  0  0  0  0  0
   90.4200   47.1068  264.0926 C   0  0  0  0  0  0  0  0  0  0  0  0
   89.9178   46.4353  263.0435 N   0  0  0  0  0  0  0  0  0  0  0  0
   88.6596   45.9305  263.1598 C   0  0  0  0  0  0  0  0  0  0  0  0
   87.8887   46.0861  264.3126 C   0  0  0  0  0  0  0  0  0  0  0  0
   88.4246   46.7965  265.3987 C   0  0  3  0  0  0  0  0  0  0  0  0
   87.4849   46.9002  266.9304 S   0  0  0  0  0  0  0  0  0  0  0  0
   86.1214   46.3894  266.6610 O   0  0  0  0  0  0  0  0  0  0  0  0
   87.6704   48.2235  267.4846 O   0  0  0  0  0  0  0  0  0  0  0  0
   88.3749   45.6310  268.0078 C   0  0  0  0  0  0  0  0  0  0  0  0
   92.5599   53.1152  271.2532 N   0  0  0  0  0  0  0  0  0  0  0  0
   92.3043   46.4224  265.9664 H   0  0  0  0  0  0  0  0  0  0  0  0
   91.2065   50.2655  267.4562 H   0  0  0  0  0  0  0  0  0  0  0  0
   97.4806   48.1057  268.0323 H   0  0  0  0  0  0  0  0  0  0  0  0
   96.8056   45.9472  267.1187 H   0  0  0  0  0  0  0  0  0  0  0  0
   95.1111   51.6336  266.9219 H   0  0  0  0  0  0  0  0  0  0  0  0
   95.6221   53.8039  267.9637 H   0  0  0  0  0  0  0  0  0  0  0  0
   94.8809   53.7825  270.3315 H   0  0  0  0  0  0  0  0  0  0  0  0
   93.6114   54.5077  269.2878 H   0  0  0  0  0  0  0  0  0  0  0  0
   92.1547   50.8942  269.9575 H   0  0  0  0  0  0  0  0  0  0  0  0
   91.4266   47.4906  264.0159 H   0  0  0  0  0  0  0  0  0  0  0  0
   88.2404   45.3872  262.3258 H   0  0  0  0  0  0  0  0  0  0  0  0
   86.8951   45.6665  264.3685 H   0  0  0  0  0  0  0  0  0  0  0  0
   87.9734   47.7326  265.0380 H   0  0  0  0  0  0  0  0  0  0  0  0
   87.8952   45.5880  268.9968 H   0  0  0  0  0  0  0  0  0  0  0  0
   88.3195   44.6416  267.5303 H   0  0  0  0  0  0  0  0  0  0  0  0
   89.4289   45.9236  268.1241 H   0  0  0  0  0  0  0  0  0  0  0  0
   91.9085   52.4157  271.5470 H   0  0  0  0  0  0  0  0  0  0  0  0
  1  4  2  0  0  0  0
  1  6  1  0  0  0  0
  1 11  1  0  0  0  0
  2  3  2  0  0  0  0
  2  5  1  0  0  0  0
  3  4  1  0  0  0  0
  3 17  1  0  0  0  0
  5  6  2  0  0  0  0
  5 10  1  0  0  0  0
  6  7  1  0  0  0  0
  7  8  2  0  0  0  0
  8  9  1  0  0  0  0
  9 10  2  0  0  0  0
 11 12  1  0  0  0  0
 11 16  2  0  0  0  0
 12 13  2  0  0  0  0
 13 14  1  0  0  0  0
 14 15  1  0  0  0  0
 15 16  1  0  0  0  0
 15 28  2  0  0  0  0
 17 18  2  0  0  0  0
 18 19  1  0  0  0  0
 18 23  1  0  0  0  0
 19 20  2  0  0  0  0
 20 21  1  0  0  0  0
 21 22  2  0  0  0  0
 22 23  1  0  0  0  0
 23 24  1  0  0  0  0
 24 25  2  0  0  0  0
 24 26  2  0  0  0  0
 24 27  1  0  0  0  0
  2 29  1  0  0  0  0
  4 30  1  0  0  0  0
  8 31  1  0  0  0  0
  9 32  1  0  0  0  0
 12 33  1  0  0  0  0
 13 34  1  0  0  0  0
 14 35  1  0  0  0  0
 14 36  1  0  0  0  0
 16 37  1  0  0  0  0
 19 38  1  0  0  0  0
 21 39  1  0  0  0  0
 22 40  1  0  0  0  0
 23 41  1  0  0  0  0
 27 42  1  0  0  0  0
 27 43  1  0  0  0  0
 27 44  1  0  0  0  0
 28 45  1  0  0  0  0
M  END
> <ID>
39

> <IC50[uM]>
5.299

$$$$
39
  -OEChem-05192314313D
 Structure written by MMmdl.
 45 48  0     1  0  0  0  0  0999 V2000
   93.2802   49.7985  267.6875 C   0  0  0  0  0  0  0  0  0  0  0  0
   92.5744   47.3376  266.4723 C   0  0  0  0  0  0  0  0  0  0  0  0
   91.6199   48.3263  266.6804 C   0  0  0  0  0  0  0  0  0  0  0  0
   91.9714   49.5220  267.2872 C   0  0  0  0  0  0  0  0  0  0  0  0
   93.9019   47.5331  266.9251 C   0  0  0  0  0  0  0  0  0  0  0  0
   94.2659   48.7775  267.5222 C   0  0  0  0  0  0  0  0  0  0  0  0
   95.5666   48.9595  267.9453 N   0  0  0  0  0  0  0  0  0  0  0  0
   96.4488   47.9549  267.7510 C   0  0  0  0  0  0  0  0  0  0  0  0
   96.0765   46.7394  267.2041 C   0  0  0  0  0  0  0  0  0  0  0  0
   94.7993   46.5295  266.7714 N   0  0  0  0  0  0  0  0  0  0  0  0
   93.5961   51.1154  268.3351 C   0  0  0  0  0  0  0  0  0  0  0  0
   94.5698   51.9449  267.8031 C   0  0  0  0  0  0  0  0  0  0  0  0
   94.8585   53.1669  268.3850 C   0  0  0  0  0  0  0  0  0  0  0  0
   94.1392   53.5776  269.5454 C   0  0  0  0  0  0  0  0  0  0  0  0
   93.2374   52.7442  270.0633 C   0  0  0  0  0  0  0  0  0  0  0  0
   92.9105   51.5224  269.5097 C   0  0  0  0  0  0  0  0  0  0  0  0
   90.2895   48.1235  266.3187 N   0  0  0  0  0  0  0  0  0  0  0  0
   89.7108   47.3399  265.2871 C   0  0  0  0  0  0  0  0  0  0  0  0
   90.4200   47.1068  264.0926 C   0  0  0  0  0  0  0  0  0  0  0  0
   89.9178   46.4353  263.0435 N   0  0  0  0  0  0  0  0  0  0  0  0
   88.6596   45.9305  263.1598 C   0  0  0  0  0  0  0  0  0  0  0  0
   87.8887   46.0861  264.3126 C   0  0  0  0  0  0  0  0  0  0  0  0
   88.4246   46.7965  265.3987 C   0  0  3  0  0  0  0  0  0  0  0  0
   87.4849   46.9002  266.9304 S   0  0  0  0  0  0  0  0  0  0  0  0
   86.1214   46.3894  266.6610 O   0  0  0  0  0  0  0  0  0  0  0  0
   87.6704   48.2235  267.4846 O   0  0  0  0  0  0  0  0  0  0  0  0
   88.3749   45.6310  268.0078 C   0  0  0  0  0  0  0  0  0  0  0  0
   92.5599   53.1152  271.2532 N   0  0  0  0  0  0  0  0  0  0  0  0
   92.3043   46.4224  265.9664 H   0  0  0  0  0  0  0  0  0  0  0  0
   91.2065   50.2655  267.4562 H   0  0  0  0  0  0  0  0  0  0  0  0
   97.4806   48.1057  268.0323 H   0  0  0  0  0  0  0  0  0  0  0  0
   96.8056   45.9472  267.1187 H   0  0  0  0  0  0  0  0  0  0  0  0
   95.5067   51.3686  267.8039 H   0  0  0  0  0  0  0  0  0  0  0  0
   94.2695   52.1551  266.7660 H   0  0  0  0  0  0  0  0  0  0  0  0
   95.6221   53.8039  267.9637 H   0  0  0  0  0  0  0  0  0  0  0  0
   94.3211   54.5427  269.9948 H   0  0  0  0  0  0  0  0  0  0  0  0
   92.1547   50.8942  269.9575 H   0  0  0  0  0  0  0  0  0  0  0  0
   91.4266   47.4906  264.0159 H   0  0  0  0  0  0  0  0  0  0  0  0
   88.2404   45.3872  262.3258 H   0  0  0  0  0  0  0  0  0  0  0  0
   86.8951   45.6665  264.3685 H   0  0  0  0  0  0  0  0  0  0  0  0
   87.9734   47.7326  265.0380 H   0  0  0  0  0  0  0  0  0  0  0  0
   87.8952   45.5880  268.9968 H   0  0  0  0  0  0  0  0  0  0  0  0
   88.3195   44.6416  267.5303 H   0  0  0  0  0  0  0  0  0  0  0  0
   89.4289   45.9236  268.1241 H   0  0  0  0  0  0  0  0  0  0  0  0
   91.9085   52.4157  271.5470 H   0  0  0  0  0  0  0  0  0  0  0  0
  1  4  2  0  0  0  0
  1  6  1  0  0  0  0
  1 11  1  0  0  0  0
  2  3  2  0  0  0  0
  2  5  1  0  0  0  0
  3  4  1  0  0  0  0
  3 17  1  0  0  0  0
  5  6  2  0  0  0  0
  5 10  1  0  0  0  0
  6  7  1  0  0  0  0
  7  8  2  0  0  0  0
  8  9  1  0  0  0  0
  9 10  2  0  0  0  0
 11 12  1  0  0  0  0
 11 16  2  0  0  0  0
 12 13  1  0  0  0  0
 13 14  2  0  0  0  0
 14 15  1  0  0  0  0
 15 16  1  0  0  0  0
 15 28  2  0  0  0  0
 17 18  2  0  0  0  0
 18 19  1  0  0  0  0
 18 23  1  0  0  0  0
 19 20  2  0  0  0  0
 20 21  1  0  0  0  0
 21 22  2  0  0  0  0
 22 23  1  0  0  0  0
 23 24  1  0  0  0  0
 24 25  2  0  0  0  0
 24 26  2  0  0  0  0
 24 27  1  0  0  0  0
  2 29  1  0  0  0  0
  4 30  1  0  0  0  0
  8 31  1  0  0  0  0
  9 32  1  0  0  0  0
 12 33  1  0  0  0  0
 12 34  1  0  0  0  0
 13 35  1  0  0  0  0
 14 36  1  0  0  0  0
 16 37  1  0  0  0  0
 19 38  1  0  0  0  0
 21 39  1  0  0  0  0
 22 40  1  0  0  0  0
 23 41  1  0  0  0  0
 27 42  1  0  0  0  0
 27 43  1  0  0  0  0
 27 44  1  0  0  0  0
 28 45  1  0  0  0  0
M  END
> <ID>
39

> <IC50[uM]>
5.299

$$$$
39
  -OEChem-05192314313D
 Structure written by MMmdl.
 45 48  0     1  0  0  0  0  0999 V2000
   93.2802   49.7985  267.6875 C   0  0  0  0  0  0  0  0  0  0  0  0
   92.5744   47.3376  266.4723 C   0  0  0  0  0  0  0  0  0  0  0  0
   91.6199   48.3263  266.6804 C   0  0  0  0  0  0  0  0  0  0  0  0
   91.9714   49.5220  267.2872 C   0  0  0  0  0  0  0  0  0  0  0  0
   93.9019   47.5331  266.9251 C   0  0  0  0  0  0  0  0  0  0  0  0
   94.2659   48.7775  267.5222 C   0  0  0  0  0  0  0  0  0  0  0  0
   95.5666   48.9595  267.9453 N   0  0  0  0  0  0  0  0  0  0  0  0
   96.4488   47.9549  267.7510 C   0  0  0  0  0  0  0  0  0  0  0  0
   96.0765   46.7394  267.2041 C   0  0  0  0  0  0  0  0  0  0  0  0
   94.7993   46.5295  266.7714 N   0  0  0  0  0  0  0  0  0  0  0  0
   93.5961   51.1154  268.3351 C   0  0  0  0  0  0  0  0  0  0  0  0
   94.5698   51.9449  267.8031 C   0  0  0  0  0  0  0  0  0  0  0  0
   94.8585   53.1669  268.3850 C   0  0  0  0  0  0  0  0  0  0  0  0
   94.1392   53.5776  269.5454 C   0  0  0  0  0  0  0  0  0  0  0  0
   93.2374   52.7442  270.0633 C   0  0  0  0  0  0  0  0  0  0  0  0
   92.9105   51.5224  269.5097 C   0  0  0  0  0  0  0  0  0  0  0  0
   90.2895   48.1235  266.3187 N   0  0  0  0  0  0  0  0  0  0  0  0
   89.7108   47.3399  265.2871 C   0  0  0  0  0  0  0  0  0  0  0  0
   90.4200   47.1068  264.0926 C   0  0  0  0  0  0  0  0  0  0  0  0
   89.9178   46.4353  263.0435 N   0  0  0  0  0  0  0  0  0  0  0  0
   88.6596   45.9305  263.1598 C   0  0  0  0  0  0  0  0  0  0  0  0
   87.8887   46.0861  264.3126 C   0  0  0  0  0  0  0  0  0  0  0  0
   88.4246   46.7965  265.3987 C   0  0  3  0  0  0  0  0  0  0  0  0
   87.4849   46.9002  266.9304 S   0  0  0  0  0  0  0  0  0  0  0  0
   86.1214   46.3894  266.6610 O   0  0  0  0  0  0  0  0  0  0  0  0
   87.6704   48.2235  267.4846 O   0  0  0  0  0  0  0  0  0  0  0  0
   88.3749   45.6310  268.0078 C   0  0  0  0  0  0  0  0  0  0  0  0
   92.5599   53.1152  271.2532 N   0  0  0  0  0  0  0  0  0  0  0  0
   92.3043   46.4224  265.9664 H   0  0  0  0  0  0  0  0  0  0  0  0
   91.2065   50.2655  267.4562 H   0  0  0  0  0  0  0  0  0  0  0  0
   97.4806   48.1057  268.0323 H   0  0  0  0  0  0  0  0  0  0  0  0
   96.8056   45.9472  267.1187 H   0  0  0  0  0  0  0  0  0  0  0  0
   95.1111   51.6336  266.9219 H   0  0  0  0  0  0  0  0  0  0  0  0
   95.6221   53.8039  267.9637 H   0  0  0  0  0  0  0  0  0  0  0  0
   94.3211   54.5427  269.9948 H   0  0  0  0  0  0  0  0  0  0  0  0
   91.8376   51.5496  269.2687 H   0  0  0  0  0  0  0  0  0  0  0  0
   93.0946   50.7563  270.2773 H   0  0  0  0  0  0  0  0  0  0  0  0
   91.4266   47.4906  264.0159 H   0  0  0  0  0  0  0  0  0  0  0  0
   88.2404   45.3872  262.3258 H   0  0  0  0  0  0  0  0  0  0  0  0
   86.8951   45.6665  264.3685 H   0  0  0  0  0  0  0  0  0  0  0  0
   87.9734   47.7326  265.0380 H   0  0  0  0  0  0  0  0  0  0  0  0
   87.8952   45.5880  268.9968 H   0  0  0  0  0  0  0  0  0  0  0  0
   88.3195   44.6416  267.5303 H   0  0  0  0  0  0  0  0  0  0  0  0
   89.4289   45.9236  268.1241 H   0  0  0  0  0  0  0  0  0  0  0  0
   91.9085   52.4157  271.5470 H   0  0  0  0  0  0  0  0  0  0  0  0
  1  4  2  0  0  0  0
  1  6  1  0  0  0  0
  1 11  1  0  0  0  0
  2  3  2  0  0  0  0
  2  5  1  0  0  0  0
  3  4  1  0  0  0  0
  3 17  1  0  0  0  0
  5  6  2  0  0  0  0
  5 10  1  0  0  0  0
  6  7  1  0  0  0  0
  7  8  2  0  0  0  0
  8  9  1  0  0  0  0
  9 10  2  0  0  0  0
 11 12  2  0  0  0  0
 11 16  1  0  0  0  0
 12 13  1  0  0  0  0
 13 14  2  0  0  0  0
 14 15  1  0  0  0  0
 15 16  1  0  0  0  0
 15 28  2  0  0  0  0
 17 18  2  0  0  0  0
 18 19  1  0  0  0  0
 18 23  1  0  0  0  0
 19 20  2  0  0  0  0
 20 21  1  0  0  0  0
 21 22  2  0  0  0  0
 22 23  1  0  0  0  0
 23 24  1  0  0  0  0
 24 25  2  0  0  0  0
 24 26  2  0  0  0  0
 24 27  1  0  0  0  0
  2 29  1  0  0  0  0
  4 30  1  0  0  0  0
  8 31  1  0  0  0  0
  9 32  1  0  0  0  0
 12 33  1  0  0  0  0
 13 34  1  0  0  0  0
 14 35  1  0  0  0  0
 16 36  1  0  0  0  0
 16 37  1  0  0  0  0
 19 38  1  0  0  0  0
 21 39  1  0  0  0  0
 22 40  1  0  0  0  0
 23 41  1  0  0  0  0
 27 42  1  0  0  0  0
 27 43  1  0  0  0  0
 27 44  1  0  0  0  0
 28 45  1  0  0  0  0
M  END
> <ID>
39

> <IC50[uM]>
5.299

$$$$
39
  -OEChem-05192314313D
 Structure written by MMmdl.
 45 48  0     0  0  0  0  0  0999 V2000
   93.2802   49.7985  267.6875 C   0  0  0  0  0  0  0  0  0  0  0  0
   92.5744   47.3376  266.4723 C   0  0  0  0  0  0  0  0  0  0  0  0
   91.6199   48.3263  266.6804 C   0  0  0  0  0  0  0  0  0  0  0  0
   91.9714   49.5220  267.2872 C   0  0  0  0  0  0  0  0  0  0  0  0
   93.9019   47.5331  266.9251 C   0  0  0  0  0  0  0  0  0  0  0  0
   94.2659   48.7775  267.5222 C   0  0  0  0  0  0  0  0  0  0  0  0
   95.5666   48.9595  267.9453 N   0  0  0  0  0  0  0  0  0  0  0  0
   96.4488   47.9549  267.7510 C   0  0  0  0  0  0  0  0  0  0  0  0
   96.0765   46.7394  267.2041 C   0  0  0  0  0  0  0  0  0  0  0  0
   94.7993   46.5295  266.7714 N   0  0  0  0  0  0  0  0  0  0  0  0
   93.5961   51.1154  268.3351 C   0  0  0  0  0  0  0  0  0  0  0  0
   94.5698   51.9449  267.8031 C   0  0  0  0  0  0  0  0  0  0  0  0
   94.8585   53.1669  268.3850 C   0  0  0  0  0  0  0  0  0  0  0  0
   94.1392   53.5776  269.5454 C   0  0  0  0  0  0  0  0  0  0  0  0
   93.2374   52.7442  270.0633 C   0  0  0  0  0  0  0  0  0  0  0  0
   92.9105   51.5224  269.5097 C   0  0  0  0  0  0  0  0  0  0  0  0
   90.2895   48.1235  266.3187 N   0  0  0  0  0  0  0  0  0  0  0  0
   89.7108   47.3399  265.2871 C   0  0  0  0  0  0  0  0  0  0  0  0
   90.4200   47.1068  264.0926 C   0  0  0  0  0  0  0  0  0  0  0  0
   89.9178   46.4353  263.0435 N   0  0  0  0  0  0  0  0  0  0  0  0
   88.6596   45.9305  263.1598 C   0  0  0  0  0  0  0  0  0  0  0  0
   87.8887   46.0861  264.3126 C   0  0  0  0  0  0  0  0  0  0  0  0
   88.4246   46.7965  265.3987 C   0  0  0  0  0  0  0  0  0  0  0  0
   87.4849   46.9002  266.9304 S   0  0  0  0  0  0  0  0  0  0  0  0
   86.1214   46.3894  266.6610 O   0  0  0  0  0  0  0  0  0  0  0  0
   87.6704   48.2235  267.4846 O   0  0  0  0  0  0  0  0  0  0  0  0
   88.3749   45.6310  268.0078 C   0  0  0  0  0  0  0  0  0  0  0  0
   92.5599   53.1152  271.2532 N   0  0  0  0  0  0  0  0  0  0  0  0
   92.3043   46.4224  265.9664 H   0  0  0  0  0  0  0  0  0  0  0  0
   91.2065   50.2655  267.4562 H   0  0  0  0  0  0  0  0  0  0  0  0
   97.4806   48.1057  268.0323 H   0  0  0  0  0  0  0  0  0  0  0  0
   96.8056   45.9472  267.1187 H   0  0  0  0  0  0  0  0  0  0  0  0
   95.1111   51.6336  266.9219 H   0  0  0  0  0  0  0  0  0  0  0  0
   95.6221   53.8039  267.9637 H   0  0  0  0  0  0  0  0  0  0  0  0
   94.8809   53.7825  270.3315 H   0  0  0  0  0  0  0  0  0  0  0  0
   93.6114   54.5077  269.2878 H   0  0  0  0  0  0  0  0  0  0  0  0
   92.1547   50.8942  269.9575 H   0  0  0  0  0  0  0  0  0  0  0  0
   91.4266   47.4906  264.0159 H   0  0  0  0  0  0  0  0  0  0  0  0
   88.0759   46.3758  262.3407 H   0  0  0  0  0  0  0  0  0  0  0  0
   88.7503   44.8462  262.9981 H   0  0  0  0  0  0  0  0  0  0  0  0
   86.8951   45.6665  264.3685 H   0  0  0  0  0  0  0  0  0  0  0  0
   87.8952   45.5880  268.9968 H   0  0  0  0  0  0  0  0  0  0  0  0
   88.3195   44.6416  267.5303 H   0  0  0  0  0  0  0  0  0  0  0  0
   89.4289   45.9236  268.1241 H   0  0  0  0  0  0  0  0  0  0  0  0
   91.9085   52.4157  271.5470 H   0  0  0  0  0  0  0  0  0  0  0  0
  1  4  2  0  0  0  0
  1  6  1  0  0  0  0
  1 11  1  0  0  0  0
  2  3  2  0  0  0  0
  2  5  1  0  0  0  0
  3  4  1  0  0  0  0
  3 17  1  0  0  0  0
  5  6  2  0  0  0  0
  5 10  1  0  0  0  0
  6  7  1  0  0  0  0
  7  8  2  0  0  0  0
  8  9  1  0  0  0  0
  9 10  2  0  0  0  0
 11 12  1  0  0  0  0
 11 16  2  0  0  0  0
 12 13  2  0  0  0  0
 13 14  1  0  0  0  0
 14 15  1  0  0  0  0
 15 16  1  0  0  0  0
 15 28  2  0  0  0  0
 17 18  2  0  0  0  0
 18 19  1  0  0  0  0
 18 23  1  0  0  0  0
 19 20  2  0  0  0  0
 20 21  1  0  0  0  0
 21 22  1  0  0  0  0
 22 23  2  0  0  0  0
 23 24  1  0  0  0  0
 24 25  2  0  0  0  0
 24 26  2  0  0  0  0
 24 27  1  0  0  0  0
  2 29  1  0  0  0  0
  4 30  1  0  0  0  0
  8 31  1  0  0  0  0
  9 32  1  0  0  0  0
 12 33  1  0  0  0  0
 13 34  1  0  0  0  0
 14 35  1  0  0  0  0
 14 36  1  0  0  0  0
 16 37  1  0  0  0  0
 19 38  1  0  0  0  0
 21 39  1  0  0  0  0
 21 40  1  0  0  0  0
 22 41  1  0  0  0  0
 27 42  1  0  0  0  0
 27 43  1  0  0  0  0
 27 44  1  0  0  0  0
 28 45  1  0  0  0  0
M  END
> <ID>
39

> <IC50[uM]>
5.299

$$$$
39
  -OEChem-05192314313D
 Structure written by MMmdl.
 45 48  0     0  0  0  0  0  0999 V2000
   93.2802   49.7985  267.6875 C   0  0  0  0  0  0  0  0  0  0  0  0
   92.5744   47.3376  266.4723 C   0  0  0  0  0  0  0  0  0  0  0  0
   91.6199   48.3263  266.6804 C   0  0  0  0  0  0  0  0  0  0  0  0
   91.9714   49.5220  267.2872 C   0  0  0  0  0  0  0  0  0  0  0  0
   93.9019   47.5331  266.9251 C   0  0  0  0  0  0  0  0  0  0  0  0
   94.2659   48.7775  267.5222 C   0  0  0  0  0  0  0  0  0  0  0  0
   95.5666   48.9595  267.9453 N   0  0  0  0  0  0  0  0  0  0  0  0
   96.4488   47.9549  267.7510 C   0  0  0  0  0  0  0  0  0  0  0  0
   96.0765   46.7394  267.2041 C   0  0  0  0  0  0  0  0  0  0  0  0
   94.7993   46.5295  266.7714 N   0  0  0  0  0  0  0  0  0  0  0  0
   93.5961   51.1154  268.3351 C   0  0  0  0  0  0  0  0  0  0  0  0
   94.5698   51.9449  267.8031 C   0  0  0  0  0  0  0  0  0  0  0  0
   94.8585   53.1669  268.3850 C   0  0  0  0  0  0  0  0  0  0  0  0
   94.1392   53.5776  269.5454 C   0  0  0  0  0  0  0  0  0  0  0  0
   93.2374   52.7442  270.0633 C   0  0  0  0  0  0  0  0  0  0  0  0
   92.9105   51.5224  269.5097 C   0  0  0  0  0  0  0  0  0  0  0  0
   90.2895   48.1235  266.3187 N   0  0  0  0  0  0  0  0  0  0  0  0
   89.7108   47.3399  265.2871 C   0  0  0  0  0  0  0  0  0  0  0  0
   90.4200   47.1068  264.0926 C   0  0  0  0  0  0  0  0  0  0  0  0
   89.9178   46.4353  263.0435 N   0  0  0  0  0  0  0  0  0  0  0  0
   88.6596   45.9305  263.1598 C   0  0  0  0  0  0  0  0  0  0  0  0
   87.8887   46.0861  264.3126 C   0  0  0  0  0  0  0  0  0  0  0  0
   88.4246   46.7965  265.3987 C   0  0  0  0  0  0  0  0  0  0  0  0
   87.4849   46.9002  266.9304 S   0  0  0  0  0  0  0  0  0  0  0  0
   86.1214   46.3894  266.6610 O   0  0  0  0  0  0  0  0  0  0  0  0
   87.6704   48.2235  267.4846 O   0  0  0  0  0  0  0  0  0  0  0  0
   88.3749   45.6310  268.0078 C   0  0  0  0  0  0  0  0  0  0  0  0
   92.5599   53.1152  271.2532 N   0  0  0  0  0  0  0  0  0  0  0  0
   92.3043   46.4224  265.9664 H   0  0  0  0  0  0  0  0  0  0  0  0
   91.2065   50.2655  267.4562 H   0  0  0  0  0  0  0  0  0  0  0  0
   97.4806   48.1057  268.0323 H   0  0  0  0  0  0  0  0  0  0  0  0
   96.8056   45.9472  267.1187 H   0  0  0  0  0  0  0  0  0  0  0  0
   95.5067   51.3686  267.8039 H   0  0  0  0  0  0  0  0  0  0  0  0
   94.2695   52.1551  266.7660 H   0  0  0  0  0  0  0  0  0  0  0  0
   95.6221   53.8039  267.9637 H   0  0  0  0  0  0  0  0  0  0  0  0
   94.3211   54.5427  269.9948 H   0  0  0  0  0  0  0  0  0  0  0  0
   92.1547   50.8942  269.9575 H   0  0  0  0  0  0  0  0  0  0  0  0
   91.4266   47.4906  264.0159 H   0  0  0  0  0  0  0  0  0  0  0  0
   88.0759   46.3758  262.3407 H   0  0  0  0  0  0  0  0  0  0  0  0
   88.7503   44.8462  262.9981 H   0  0  0  0  0  0  0  0  0  0  0  0
   86.8951   45.6665  264.3685 H   0  0  0  0  0  0  0  0  0  0  0  0
   87.8952   45.5880  268.9968 H   0  0  0  0  0  0  0  0  0  0  0  0
   88.3195   44.6416  267.5303 H   0  0  0  0  0  0  0  0  0  0  0  0
   89.4289   45.9236  268.1241 H   0  0  0  0  0  0  0  0  0  0  0  0
   91.9085   52.4157  271.5470 H   0  0  0  0  0  0  0  0  0  0  0  0
  1  4  2  0  0  0  0
  1  6  1  0  0  0  0
  1 11  1  0  0  0  0
  2  3  2  0  0  0  0
  2  5  1  0  0  0  0
  3  4  1  0  0  0  0
  3 17  1  0  0  0  0
  5  6  2  0  0  0  0
  5 10  1  0  0  0  0
  6  7  1  0  0  0  0
  7  8  2  0  0  0  0
  8  9  1  0  0  0  0
  9 10  2  0  0  0  0
 11 12  1  0  0  0  0
 11 16  2  0  0  0  0
 12 13  1  0  0  0  0
 13 14  2  0  0  0  0
 14 15  1  0  0  0  0
 15 16  1  0  0  0  0
 15 28  2  0  0  0  0
 17 18  2  0  0  0  0
 18 19  1  0  0  0  0
 18 23  1  0  0  0  0
 19 20  2  0  0  0  0
 20 21  1  0  0  0  0
 21 22  1  0  0  0  0
 22 23  2  0  0  0  0
 23 24  1  0  0  0  0
 24 25  2  0  0  0  0
 24 26  2  0  0  0  0
 24 27  1  0  0  0  0
  2 29  1  0  0  0  0
  4 30  1  0  0  0  0
  8 31  1  0  0  0  0
  9 32  1  0  0  0  0
 12 33  1  0  0  0  0
 12 34  1  0  0  0  0
 13 35  1  0  0  0  0
 14 36  1  0  0  0  0
 16 37  1  0  0  0  0
 19 38  1  0  0  0  0
 21 39  1  0  0  0  0
 21 40  1  0  0  0  0
 22 41  1  0  0  0  0
 27 42  1  0  0  0  0
 27 43  1  0  0  0  0
 27 44  1  0  0  0  0
 28 45  1  0  0  0  0
M  END
> <ID>
39

> <IC50[uM]>
5.299

$$$$
39
  -OEChem-05192314313D
 Structure written by MMmdl.
 45 48  0     0  0  0  0  0  0999 V2000
   93.2802   49.7985  267.6875 C   0  0  0  0  0  0  0  0  0  0  0  0
   92.5744   47.3376  266.4723 C   0  0  0  0  0  0  0  0  0  0  0  0
   91.6199   48.3263  266.6804 C   0  0  0  0  0  0  0  0  0  0  0  0
   91.9714   49.5220  267.2872 C   0  0  0  0  0  0  0  0  0  0  0  0
   93.9019   47.5331  266.9251 C   0  0  0  0  0  0  0  0  0  0  0  0
   94.2659   48.7775  267.5222 C   0  0  0  0  0  0  0  0  0  0  0  0
   95.5666   48.9595  267.9453 N   0  0  0  0  0  0  0  0  0  0  0  0
   96.4488   47.9549  267.7510 C   0  0  0  0  0  0  0  0  0  0  0  0
   96.0765   46.7394  267.2041 C   0  0  0  0  0  0  0  0  0  0  0  0
   94.7993   46.5295  266.7714 N   0  0  0  0  0  0  0  0  0  0  0  0
   93.5961   51.1154  268.3351 C   0  0  0  0  0  0  0  0  0  0  0  0
   94.5698   51.9449  267.8031 C   0  0  0  0  0  0  0  0  0  0  0  0
   94.8585   53.1669  268.3850 C   0  0  0  0  0  0  0  0  0  0  0  0
   94.1392   53.5776  269.5454 C   0  0  0  0  0  0  0  0  0  0  0  0
   93.2374   52.7442  270.0633 C   0  0  0  0  0  0  0  0  0  0  0  0
   92.9105   51.5224  269.5097 C   0  0  0  0  0  0  0  0  0  0  0  0
   90.2895   48.1235  266.3187 N   0  0  0  0  0  0  0  0  0  0  0  0
   89.7108   47.3399  265.2871 C   0  0  0  0  0  0  0  0  0  0  0  0
   90.4200   47.1068  264.0926 C   0  0  0  0  0  0  0  0  0  0  0  0
   89.9178   46.4353  263.0435 N   0  0  0  0  0  0  0  0  0  0  0  0
   88.6596   45.9305  263.1598 C   0  0  0  0  0  0  0  0  0  0  0  0
   87.8887   46.0861  264.3126 C   0  0  0  0  0  0  0  0  0  0  0  0
   88.4246   46.7965  265.3987 C   0  0  0  0  0  0  0  0  0  0  0  0
   87.4849   46.9002  266.9304 S   0  0  0  0  0  0  0  0  0  0  0  0
   86.1214   46.3894  266.6610 O   0  0  0  0  0  0  0  0  0  0  0  0
   87.6704   48.2235  267.4846 O   0  0  0  0  0  0  0  0  0  0  0  0
   88.3749   45.6310  268.0078 C   0  0  0  0  0  0  0  0  0  0  0  0
   92.5599   53.1152  271.2532 N   0  0  0  0  0  0  0  0  0  0  0  0
   92.3043   46.4224  265.9664 H   0  0  0  0  0  0  0  0  0  0  0  0
   91.2065   50.2655  267.4562 H   0  0  0  0  0  0  0  0  0  0  0  0
   97.4806   48.1057  268.0323 H   0  0  0  0  0  0  0  0  0  0  0  0
   96.8056   45.9472  267.1187 H   0  0  0  0  0  0  0  0  0  0  0  0
   95.1111   51.6336  266.9219 H   0  0  0  0  0  0  0  0  0  0  0  0
   95.6221   53.8039  267.9637 H   0  0  0  0  0  0  0  0  0  0  0  0
   94.3211   54.5427  269.9948 H   0  0  0  0  0  0  0  0  0  0  0  0
   91.8376   51.5496  269.2687 H   0  0  0  0  0  0  0  0  0  0  0  0
   93.0946   50.7563  270.2773 H   0  0  0  0  0  0  0  0  0  0  0  0
   91.4266   47.4906  264.0159 H   0  0  0  0  0  0  0  0  0  0  0  0
   88.0759   46.3758  262.3407 H   0  0  0  0  0  0  0  0  0  0  0  0
   88.7503   44.8462  262.9981 H   0  0  0  0  0  0  0  0  0  0  0  0
   86.8951   45.6665  264.3685 H   0  0  0  0  0  0  0  0  0  0  0  0
   87.8952   45.5880  268.9968 H   0  0  0  0  0  0  0  0  0  0  0  0
   88.3195   44.6416  267.5303 H   0  0  0  0  0  0  0  0  0  0  0  0
   89.4289   45.9236  268.1241 H   0  0  0  0  0  0  0  0  0  0  0  0
   91.9085   52.4157  271.5470 H   0  0  0  0  0  0  0  0  0  0  0  0
  1  4  2  0  0  0  0
  1  6  1  0  0  0  0
  1 11  1  0  0  0  0
  2  3  2  0  0  0  0
  2  5  1  0  0  0  0
  3  4  1  0  0  0  0
  3 17  1  0  0  0  0
  5  6  2  0  0  0  0
  5 10  1  0  0  0  0
  6  7  1  0  0  0  0
  7  8  2  0  0  0  0
  8  9  1  0  0  0  0
  9 10  2  0  0  0  0
 11 12  2  0  0  0  0
 11 16  1  0  0  0  0
 12 13  1  0  0  0  0
 13 14  2  0  0  0  0
 14 15  1  0  0  0  0
 15 16  1  0  0  0  0
 15 28  2  0  0  0  0
 17 18  2  0  0  0  0
 18 19  1  0  0  0  0
 18 23  1  0  0  0  0
 19 20  2  0  0  0  0
 20 21  1  0  0  0  0
 21 22  1  0  0  0  0
 22 23  2  0  0  0  0
 23 24  1  0  0  0  0
 24 25  2  0  0  0  0
 24 26  2  0  0  0  0
 24 27  1  0  0  0  0
  2 29  1  0  0  0  0
  4 30  1  0  0  0  0
  8 31  1  0  0  0  0
  9 32  1  0  0  0  0
 12 33  1  0  0  0  0
 13 34  1  0  0  0  0
 14 35  1  0  0  0  0
 16 36  1  0  0  0  0
 16 37  1  0  0  0  0
 19 38  1  0  0  0  0
 21 39  1  0  0  0  0
 21 40  1  0  0  0  0
 22 41  1  0  0  0  0
 27 42  1  0  0  0  0
 27 43  1  0  0  0  0
 27 44  1  0  0  0  0
 28 45  1  0  0  0  0
M  END
> <ID>
39

> <IC50[uM]>
5.299

$$$$
39
  -OEChem-05192314313D
 Structure written by MMmdl.
 45 48  0     0  0  0  0  0  0999 V2000
   93.2802   49.7985  267.6875 C   0  0  0  0  0  0  0  0  0  0  0  0
   92.5744   47.3376  266.4723 C   0  0  0  0  0  0  0  0  0  0  0  0
   91.6199   48.3263  266.6804 C   0  0  0  0  0  0  0  0  0  0  0  0
   91.9714   49.5220  267.2872 C   0  0  0  0  0  0  0  0  0  0  0  0
   93.9019   47.5331  266.9251 C   0  0  0  0  0  0  0  0  0  0  0  0
   94.2659   48.7775  267.5222 C   0  0  0  0  0  0  0  0  0  0  0  0
   95.5666   48.9595  267.9453 N   0  0  0  0  0  0  0  0  0  0  0  0
   96.4488   47.9549  267.7510 C   0  0  0  0  0  0  0  0  0  0  0  0
   96.0765   46.7394  267.2041 C   0  0  0  0  0  0  0  0  0  0  0  0
   94.7993   46.5295  266.7714 N   0  0  0  0  0  0  0  0  0  0  0  0
   93.5961   51.1154  268.3351 C   0  0  0  0  0  0  0  0  0  0  0  0
   94.5698   51.9449  267.8031 C   0  0  0  0  0  0  0  0  0  0  0  0
   94.8585   53.1669  268.3850 C   0  0  0  0  0  0  0  0  0  0  0  0
   94.1392   53.5776  269.5454 C   0  0  0  0  0  0  0  0  0  0  0  0
   93.2374   52.7442  270.0633 C   0  0  0  0  0  0  0  0  0  0  0  0
   92.9105   51.5224  269.5097 C   0  0  0  0  0  0  0  0  0  0  0  0
   90.2895   48.1235  266.3187 N   0  0  0  0  0  0  0  0  0  0  0  0
   89.7108   47.3399  265.2871 C   0  0  0  0  0  0  0  0  0  0  0  0
   90.4200   47.1068  264.0926 C   0  0  0  0  0  0  0  0  0  0  0  0
   89.9178   46.4353  263.0435 N   0  0  0  0  0  0  0  0  0  0  0  0
   88.6596   45.9305  263.1598 C   0  0  0  0  0  0  0  0  0  0  0  0
   87.8887   46.0861  264.3126 C   0  0  0  0  0  0  0  0  0  0  0  0
   88.4246   46.7965  265.3987 C   0  0  0  0  0  0  0  0  0  0  0  0
   87.4849   46.9002  266.9304 S   0  0  0  0  0  0  0  0  0  0  0  0
   86.1214   46.3894  266.6610 O   0  0  0  0  0  0  0  0  0  0  0  0
   87.6704   48.2235  267.4846 O   0  0  0  0  0  0  0  0  0  0  0  0
   88.3749   45.6310  268.0078 C   0  0  0  0  0  0  0  0  0  0  0  0
   92.5599   53.1152  271.2532 N   0  0  0  0  0  0  0  0  0  0  0  0
   92.3043   46.4224  265.9664 H   0  0  0  0  0  0  0  0  0  0  0  0
   91.2065   50.2655  267.4562 H   0  0  0  0  0  0  0  0  0  0  0  0
   97.4806   48.1057  268.0323 H   0  0  0  0  0  0  0  0  0  0  0  0
   96.8056   45.9472  267.1187 H   0  0  0  0  0  0  0  0  0  0  0  0
   95.1111   51.6336  266.9219 H   0  0  0  0  0  0  0  0  0  0  0  0
   95.6221   53.8039  267.9637 H   0  0  0  0  0  0  0  0  0  0  0  0
   94.8809   53.7825  270.3315 H   0  0  0  0  0  0  0  0  0  0  0  0
   93.6114   54.5077  269.2878 H   0  0  0  0  0  0  0  0  0  0  0  0
   92.1547   50.8942  269.9575 H   0  0  0  0  0  0  0  0  0  0  0  0
   90.6932   48.1006  263.7083 H   0  0  0  0  0  0  0  0  0  0  0  0
   91.3306   46.5643  264.3866 H   0  0  0  0  0  0  0  0  0  0  0  0
   88.2404   45.3872  262.3258 H   0  0  0  0  0  0  0  0  0  0  0  0
   86.8951   45.6665  264.3685 H   0  0  0  0  0  0  0  0  0  0  0  0
   87.8952   45.5880  268.9968 H   0  0  0  0  0  0  0  0  0  0  0  0
   88.3195   44.6416  267.5303 H   0  0  0  0  0  0  0  0  0  0  0  0
   89.4289   45.9236  268.1241 H   0  0  0  0  0  0  0  0  0  0  0  0
   91.9085   52.4157  271.5470 H   0  0  0  0  0  0  0  0  0  0  0  0
  1  4  2  0  0  0  0
  1  6  1  0  0  0  0
  1 11  1  0  0  0  0
  2  3  2  0  0  0  0
  2  5  1  0  0  0  0
  3  4  1  0  0  0  0
  3 17  1  0  0  0  0
  5  6  2  0  0  0  0
  5 10  1  0  0  0  0
  6  7  1  0  0  0  0
  7  8  2  0  0  0  0
  8  9  1  0  0  0  0
  9 10  2  0  0  0  0
 11 12  1  0  0  0  0
 11 16  2  0  0  0  0
 12 13  2  0  0  0  0
 13 14  1  0  0  0  0
 14 15  1  0  0  0  0
 15 16  1  0  0  0  0
 15 28  2  0  0  0  0
 17 18  2  0  0  0  0
 18 19  1  0  0  0  0
 18 23  1  0  0  0  0
 19 20  1  0  0  0  0
 20 21  2  0  0  0  0
 21 22  1  0  0  0  0
 22 23  2  0  0  0  0
 23 24  1  0  0  0  0
 24 25  2  0  0  0  0
 24 26  2  0  0  0  0
 24 27  1  0  0  0  0
  2 29  1  0  0  0  0
  4 30  1  0  0  0  0
  8 31  1  0  0  0  0
  9 32  1  0  0  0  0
 12 33  1  0  0  0  0
 13 34  1  0  0  0  0
 14 35  1  0  0  0  0
 14 36  1  0  0  0  0
 16 37  1  0  0  0  0
 19 38  1  0  0  0  0
 19 39  1  0  0  0  0
 21 40  1  0  0  0  0
 22 41  1  0  0  0  0
 27 42  1  0  0  0  0
 27 43  1  0  0  0  0
 27 44  1  0  0  0  0
 28 45  1  0  0  0  0
M  END
> <ID>
39

> <IC50[uM]>
5.299

$$$$
39
  -OEChem-05192314313D
 Structure written by MMmdl.
 45 48  0     0  0  0  0  0  0999 V2000
   93.2802   49.7985  267.6875 C   0  0  0  0  0  0  0  0  0  0  0  0
   92.5744   47.3376  266.4723 C   0  0  0  0  0  0  0  0  0  0  0  0
   91.6199   48.3263  266.6804 C   0  0  0  0  0  0  0  0  0  0  0  0
   91.9714   49.5220  267.2872 C   0  0  0  0  0  0  0  0  0  0  0  0
   93.9019   47.5331  266.9251 C   0  0  0  0  0  0  0  0  0  0  0  0
   94.2659   48.7775  267.5222 C   0  0  0  0  0  0  0  0  0  0  0  0
   95.5666   48.9595  267.9453 N   0  0  0  0  0  0  0  0  0  0  0  0
   96.4488   47.9549  267.7510 C   0  0  0  0  0  0  0  0  0  0  0  0
   96.0765   46.7394  267.2041 C   0  0  0  0  0  0  0  0  0  0  0  0
   94.7993   46.5295  266.7714 N   0  0  0  0  0  0  0  0  0  0  0  0
   93.5961   51.1154  268.3351 C   0  0  0  0  0  0  0  0  0  0  0  0
   94.5698   51.9449  267.8031 C   0  0  0  0  0  0  0  0  0  0  0  0
   94.8585   53.1669  268.3850 C   0  0  0  0  0  0  0  0  0  0  0  0
   94.1392   53.5776  269.5454 C   0  0  0  0  0  0  0  0  0  0  0  0
   93.2374   52.7442  270.0633 C   0  0  0  0  0  0  0  0  0  0  0  0
   92.9105   51.5224  269.5097 C   0  0  0  0  0  0  0  0  0  0  0  0
   90.2895   48.1235  266.3187 N   0  0  0  0  0  0  0  0  0  0  0  0
   89.7108   47.3399  265.2871 C   0  0  0  0  0  0  0  0  0  0  0  0
   90.4200   47.1068  264.0926 C   0  0  0  0  0  0  0  0  0  0  0  0
   89.9178   46.4353  263.0435 N   0  0  0  0  0  0  0  0  0  0  0  0
   88.6596   45.9305  263.1598 C   0  0  0  0  0  0  0  0  0  0  0  0
   87.8887   46.0861  264.3126 C   0  0  0  0  0  0  0  0  0  0  0  0
   88.4246   46.7965  265.3987 C   0  0  0  0  0  0  0  0  0  0  0  0
   87.4849   46.9002  266.9304 S   0  0  0  0  0  0  0  0  0  0  0  0
   86.1214   46.3894  266.6610 O   0  0  0  0  0  0  0  0  0  0  0  0
   87.6704   48.2235  267.4846 O   0  0  0  0  0  0  0  0  0  0  0  0
   88.3749   45.6310  268.0078 C   0  0  0  0  0  0  0  0  0  0  0  0
   92.5599   53.1152  271.2532 N   0  0  0  0  0  0  0  0  0  0  0  0
   92.3043   46.4224  265.9664 H   0  0  0  0  0  0  0  0  0  0  0  0
   91.2065   50.2655  267.4562 H   0  0  0  0  0  0  0  0  0  0  0  0
   97.4806   48.1057  268.0323 H   0  0  0  0  0  0  0  0  0  0  0  0
   96.8056   45.9472  267.1187 H   0  0  0  0  0  0  0  0  0  0  0  0
   95.5067   51.3686  267.8039 H   0  0  0  0  0  0  0  0  0  0  0  0
   94.2695   52.1551  266.7660 H   0  0  0  0  0  0  0  0  0  0  0  0
   95.6221   53.8039  267.9637 H   0  0  0  0  0  0  0  0  0  0  0  0
   94.3211   54.5427  269.9948 H   0  0  0  0  0  0  0  0  0  0  0  0
   92.1547   50.8942  269.9575 H   0  0  0  0  0  0  0  0  0  0  0  0
   90.6932   48.1006  263.7083 H   0  0  0  0  0  0  0  0  0  0  0  0
   91.3306   46.5643  264.3866 H   0  0  0  0  0  0  0  0  0  0  0  0
   88.2404   45.3872  262.3258 H   0  0  0  0  0  0  0  0  0  0  0  0
   86.8951   45.6665  264.3685 H   0  0  0  0  0  0  0  0  0  0  0  0
   87.8952   45.5880  268.9968 H   0  0  0  0  0  0  0  0  0  0  0  0
   88.3195   44.6416  267.5303 H   0  0  0  0  0  0  0  0  0  0  0  0
   89.4289   45.9236  268.1241 H   0  0  0  0  0  0  0  0  0  0  0  0
   91.9085   52.4157  271.5470 H   0  0  0  0  0  0  0  0  0  0  0  0
  1  4  2  0  0  0  0
  1  6  1  0  0  0  0
  1 11  1  0  0  0  0
  2  3  2  0  0  0  0
  2  5  1  0  0  0  0
  3  4  1  0  0  0  0
  3 17  1  0  0  0  0
  5  6  2  0  0  0  0
  5 10  1  0  0  0  0
  6  7  1  0  0  0  0
  7  8  2  0  0  0  0
  8  9  1  0  0  0  0
  9 10  2  0  0  0  0
 11 12  1  0  0  0  0
 11 16  2  0  0  0  0
 12 13  1  0  0  0  0
 13 14  2  0  0  0  0
 14 15  1  0  0  0  0
 15 16  1  0  0  0  0
 15 28  2  0  0  0  0
 17 18  2  0  0  0  0
 18 19  1  0  0  0  0
 18 23  1  0  0  0  0
 19 20  1  0  0  0  0
 20 21  2  0  0  0  0
 21 22  1  0  0  0  0
 22 23  2  0  0  0  0
 23 24  1  0  0  0  0
 24 25  2  0  0  0  0
 24 26  2  0  0  0  0
 24 27  1  0  0  0  0
  2 29  1  0  0  0  0
  4 30  1  0  0  0  0
  8 31  1  0  0  0  0
  9 32  1  0  0  0  0
 12 33  1  0  0  0  0
 12 34  1  0  0  0  0
 13 35  1  0  0  0  0
 14 36  1  0  0  0  0
 16 37  1  0  0  0  0
 19 38  1  0  0  0  0
 19 39  1  0  0  0  0
 21 40  1  0  0  0  0
 22 41  1  0  0  0  0
 27 42  1  0  0  0  0
 27 43  1  0  0  0  0
 27 44  1  0  0  0  0
 28 45  1  0  0  0  0
M  END
> <ID>
39

> <IC50[uM]>
5.299

$$$$
39
  -OEChem-05192314313D
 Structure written by MMmdl.
 45 48  0     0  0  0  0  0  0999 V2000
   93.2802   49.7985  267.6875 C   0  0  0  0  0  0  0  0  0  0  0  0
   92.5744   47.3376  266.4723 C   0  0  0  0  0  0  0  0  0  0  0  0
   91.6199   48.3263  266.6804 C   0  0  0  0  0  0  0  0  0  0  0  0
   91.9714   49.5220  267.2872 C   0  0  0  0  0  0  0  0  0  0  0  0
   93.9019   47.5331  266.9251 C   0  0  0  0  0  0  0  0  0  0  0  0
   94.2659   48.7775  267.5222 C   0  0  0  0  0  0  0  0  0  0  0  0
   95.5666   48.9595  267.9453 N   0  0  0  0  0  0  0  0  0  0  0  0
   96.4488   47.9549  267.7510 C   0  0  0  0  0  0  0  0  0  0  0  0
   96.0765   46.7394  267.2041 C   0  0  0  0  0  0  0  0  0  0  0  0
   94.7993   46.5295  266.7714 N   0  0  0  0  0  0  0  0  0  0  0  0
   93.5961   51.1154  268.3351 C   0  0  0  0  0  0  0  0  0  0  0  0
   94.5698   51.9449  267.8031 C   0  0  0  0  0  0  0  0  0  0  0  0
   94.8585   53.1669  268.3850 C   0  0  0  0  0  0  0  0  0  0  0  0
   94.1392   53.5776  269.5454 C   0  0  0  0  0  0  0  0  0  0  0  0
   93.2374   52.7442  270.0633 C   0  0  0  0  0  0  0  0  0  0  0  0
   92.9105   51.5224  269.5097 C   0  0  0  0  0  0  0  0  0  0  0  0
   90.2895   48.1235  266.3187 N   0  0  0  0  0  0  0  0  0  0  0  0
   89.7108   47.3399  265.2871 C   0  0  0  0  0  0  0  0  0  0  0  0
   90.4200   47.1068  264.0926 C   0  0  0  0  0  0  0  0  0  0  0  0
   89.9178   46.4353  263.0435 N   0  0  0  0  0  0  0  0  0  0  0  0
   88.6596   45.9305  263.1598 C   0  0  0  0  0  0  0  0  0  0  0  0
   87.8887   46.0861  264.3126 C   0  0  0  0  0  0  0  0  0  0  0  0
   88.4246   46.7965  265.3987 C   0  0  0  0  0  0  0  0  0  0  0  0
   87.4849   46.9002  266.9304 S   0  0  0  0  0  0  0  0  0  0  0  0
   86.1214   46.3894  266.6610 O   0  0  0  0  0  0  0  0  0  0  0  0
   87.6704   48.2235  267.4846 O   0  0  0  0  0  0  0  0  0  0  0  0
   88.3749   45.6310  268.0078 C   0  0  0  0  0  0  0  0  0  0  0  0
   92.5599   53.1152  271.2532 N   0  0  0  0  0  0  0  0  0  0  0  0
   92.3043   46.4224  265.9664 H   0  0  0  0  0  0  0  0  0  0  0  0
   91.2065   50.2655  267.4562 H   0  0  0  0  0  0  0  0  0  0  0  0
   97.4806   48.1057  268.0323 H   0  0  0  0  0  0  0  0  0  0  0  0
   96.8056   45.9472  267.1187 H   0  0  0  0  0  0  0  0  0  0  0  0
   95.1111   51.6336  266.9219 H   0  0  0  0  0  0  0  0  0  0  0  0
   95.6221   53.8039  267.9637 H   0  0  0  0  0  0  0  0  0  0  0  0
   94.3211   54.5427  269.9948 H   0  0  0  0  0  0  0  0  0  0  0  0
   91.8376   51.5496  269.2687 H   0  0  0  0  0  0  0  0  0  0  0  0
   93.0946   50.7563  270.2773 H   0  0  0  0  0  0  0  0  0  0  0  0
   90.6932   48.1006  263.7083 H   0  0  0  0  0  0  0  0  0  0  0  0
   91.3306   46.5643  264.3866 H   0  0  0  0  0  0  0  0  0  0  0  0
   88.2404   45.3872  262.3258 H   0  0  0  0  0  0  0  0  0  0  0  0
   86.8951   45.6665  264.3685 H   0  0  0  0  0  0  0  0  0  0  0  0
   87.8952   45.5880  268.9968 H   0  0  0  0  0  0  0  0  0  0  0  0
   88.3195   44.6416  267.5303 H   0  0  0  0  0  0  0  0  0  0  0  0
   89.4289   45.9236  268.1241 H   0  0  0  0  0  0  0  0  0  0  0  0
   91.9085   52.4157  271.5470 H   0  0  0  0  0  0  0  0  0  0  0  0
  1  4  2  0  0  0  0
  1  6  1  0  0  0  0
  1 11  1  0  0  0  0
  2  3  2  0  0  0  0
  2  5  1  0  0  0  0
  3  4  1  0  0  0  0
  3 17  1  0  0  0  0
  5  6  2  0  0  0  0
  5 10  1  0  0  0  0
  6  7  1  0  0  0  0
  7  8  2  0  0  0  0
  8  9  1  0  0  0  0
  9 10  2  0  0  0  0
 11 12  2  0  0  0  0
 11 16  1  0  0  0  0
 12 13  1  0  0  0  0
 13 14  2  0  0  0  0
 14 15  1  0  0  0  0
 15 16  1  0  0  0  0
 15 28  2  0  0  0  0
 17 18  2  0  0  0  0
 18 19  1  0  0  0  0
 18 23  1  0  0  0  0
 19 20  1  0  0  0  0
 20 21  2  0  0  0  0
 21 22  1  0  0  0  0
 22 23  2  0  0  0  0
 23 24  1  0  0  0  0
 24 25  2  0  0  0  0
 24 26  2  0  0  0  0
 24 27  1  0  0  0  0
  2 29  1  0  0  0  0
  4 30  1  0  0  0  0
  8 31  1  0  0  0  0
  9 32  1  0  0  0  0
 12 33  1  0  0  0  0
 13 34  1  0  0  0  0
 14 35  1  0  0  0  0
 16 36  1  0  0  0  0
 16 37  1  0  0  0  0
 19 38  1  0  0  0  0
 19 39  1  0  0  0  0
 21 40  1  0  0  0  0
 22 41  1  0  0  0  0
 27 42  1  0  0  0  0
 27 43  1  0  0  0  0
 27 44  1  0  0  0  0
 28 45  1  0  0  0  0
M  END
> <ID>
39

> <IC50[uM]>
5.299

$$$$
39
  -OEChem-05192314313D
 Structure written by MMmdl.
 45 48  0     1  0  0  0  0  0999 V2000
   93.2802   49.7985  267.6875 C   0  0  0  0  0  0  0  0  0  0  0  0
   92.5744   47.3376  266.4723 C   0  0  0  0  0  0  0  0  0  0  0  0
   91.6199   48.3263  266.6804 C   0  0  0  0  0  0  0  0  0  0  0  0
   91.9714   49.5220  267.2872 C   0  0  0  0  0  0  0  0  0  0  0  0
   93.9019   47.5331  266.9251 C   0  0  0  0  0  0  0  0  0  0  0  0
   94.2659   48.7775  267.5222 C   0  0  3  0  0  0  0  0  0  0  0  0
   95.5666   48.9595  267.9453 N   0  0  0  0  0  0  0  0  0  0  0  0
   96.4488   47.9549  267.7510 C   0  0  0  0  0  0  0  0  0  0  0  0
   96.0765   46.7394  267.2041 C   0  0  0  0  0  0  0  0  0  0  0  0
   94.7993   46.5295  266.7714 N   0  0  0  0  0  0  0  0  0  0  0  0
   93.5961   51.1154  268.3351 C   0  0  0  0  0  0  0  0  0  0  0  0
   94.5698   51.9449  267.8031 C   0  0  0  0  0  0  0  0  0  0  0  0
   94.8585   53.1669  268.3850 C   0  0  0  0  0  0  0  0  0  0  0  0
   94.1392   53.5776  269.5454 C   0  0  0  0  0  0  0  0  0  0  0  0
   93.2374   52.7442  270.0633 C   0  0  0  0  0  0  0  0  0  0  0  0
   92.9105   51.5224  269.5097 C   0  0  0  0  0  0  0  0  0  0  0  0
   90.2895   48.1235  266.3187 N   0  0  0  0  0  0  0  0  0  0  0  0
   89.7108   47.3399  265.2871 C   0  0  0  0  0  0  0  0  0  0  0  0
   90.4200   47.1068  264.0926 C   0  0  0  0  0  0  0  0  0  0  0  0
   89.9178   46.4353  263.0435 N   0  0  0  0  0  0  0  0  0  0  0  0
   88.6596   45.9305  263.1598 C   0  0  0  0  0  0  0  0  0  0  0  0
   87.8887   46.0861  264.3126 C   0  0  0  0  0  0  0  0  0  0  0  0
   88.4246   46.7965  265.3987 C   0  0  0  0  0  0  0  0  0  0  0  0
   87.4849   46.9002  266.9304 S   0  0  0  0  0  0  0  0  0  0  0  0
   86.1214   46.3894  266.6610 O   0  0  0  0  0  0  0  0  0  0  0  0
   87.6704   48.2235  267.4846 O   0  0  0  0  0  0  0  0  0  0  0  0
   88.3749   45.6310  268.0078 C   0  0  0  0  0  0  0  0  0  0  0  0
   92.5599   53.1152  271.2532 N   0  0  0  0  0  0  0  0  0  0  0  0
   92.3043   46.4224  265.9664 H   0  0  0  0  0  0  0  0  0  0  0  0
   91.2065   50.2655  267.4562 H   0  0  0  0  0  0  0  0  0  0  0  0
   94.5258   49.1818  266.5327 H   0  0  0  0  0  0  0  0  0  0  0  0
   97.4806   48.1057  268.0323 H   0  0  0  0  0  0  0  0  0  0  0  0
   96.8056   45.9472  267.1187 H   0  0  0  0  0  0  0  0  0  0  0  0
   95.1111   51.6336  266.9219 H   0  0  0  0  0  0  0  0  0  0  0  0
   95.6221   53.8039  267.9637 H   0  0  0  0  0  0  0  0  0  0  0  0
   94.8809   53.7825  270.3315 H   0  0  0  0  0  0  0  0  0  0  0  0
   93.6114   54.5077  269.2878 H   0  0  0  0  0  0  0  0  0  0  0  0
   92.1547   50.8942  269.9575 H   0  0  0  0  0  0  0  0  0  0  0  0
   91.4266   47.4906  264.0159 H   0  0  0  0  0  0  0  0  0  0  0  0
   88.2404   45.3872  262.3258 H   0  0  0  0  0  0  0  0  0  0  0  0
   86.8951   45.6665  264.3685 H   0  0  0  0  0  0  0  0  0  0  0  0
   87.8952   45.5880  268.9968 H   0  0  0  0  0  0  0  0  0  0  0  0
   88.3195   44.6416  267.5303 H   0  0  0  0  0  0  0  0  0  0  0  0
   89.4289   45.9236  268.1241 H   0  0  0  0  0  0  0  0  0  0  0  0
   91.9085   52.4157  271.5470 H   0  0  0  0  0  0  0  0  0  0  0  0
  1  4  2  0  0  0  0
  1  6  1  0  0  0  0
  1 11  1  0  0  0  0
  2  3  1  0  0  0  0
  2  5  2  0  0  0  0
  3  4  1  0  0  0  0
  3 17  2  0  0  0  0
  5  6  1  0  0  0  0
  5 10  1  0  0  0  0
  6  7  1  0  0  0  0
  7  8  2  0  0  0  0
  8  9  1  0  0  0  0
  9 10  2  0  0  0  0
 11 12  1  0  0  0  0
 11 16  2  0  0  0  0
 12 13  2  0  0  0  0
 13 14  1  0  0  0  0
 14 15  1  0  0  0  0
 15 16  1  0  0  0  0
 15 28  2  0  0  0  0
 17 18  1  0  0  0  0
 18 19  2  0  0  0  0
 18 23  1  0  0  0  0
 19 20  1  0  0  0  0
 20 21  2  0  0  0  0
 21 22  1  0  0  0  0
 22 23  2  0  0  0  0
 23 24  1  0  0  0  0
 24 25  2  0  0  0  0
 24 26  2  0  0  0  0
 24 27  1  0  0  0  0
  2 29  1  0  0  0  0
  4 30  1  0  0  0  0
  6 31  1  0  0  0  0
  8 32  1  0  0  0  0
  9 33  1  0  0  0  0
 12 34  1  0  0  0  0
 13 35  1  0  0  0  0
 14 36  1  0  0  0  0
 14 37  1  0  0  0  0
 16 38  1  0  0  0  0
 19 39  1  0  0  0  0
 21 40  1  0  0  0  0
 22 41  1  0  0  0  0
 27 42  1  0  0  0  0
 27 43  1  0  0  0  0
 27 44  1  0  0  0  0
 28 45  1  0  0  0  0
M  END
> <ID>
39

> <IC50[uM]>
5.299

$$$$
39
  -OEChem-05192314313D
 Structure written by MMmdl.
 45 48  0     1  0  0  0  0  0999 V2000
   93.2802   49.7985  267.6875 C   0  0  0  0  0  0  0  0  0  0  0  0
   92.5744   47.3376  266.4723 C   0  0  0  0  0  0  0  0  0  0  0  0
   91.6199   48.3263  266.6804 C   0  0  0  0  0  0  0  0  0  0  0  0
   91.9714   49.5220  267.2872 C   0  0  0  0  0  0  0  0  0  0  0  0
   93.9019   47.5331  266.9251 C   0  0  0  0  0  0  0  0  0  0  0  0
   94.2659   48.7775  267.5222 C   0  0  3  0  0  0  0  0  0  0  0  0
   95.5666   48.9595  267.9453 N   0  0  0  0  0  0  0  0  0  0  0  0
   96.4488   47.9549  267.7510 C   0  0  0  0  0  0  0  0  0  0  0  0
   96.0765   46.7394  267.2041 C   0  0  0  0  0  0  0  0  0  0  0  0
   94.7993   46.5295  266.7714 N   0  0  0  0  0  0  0  0  0  0  0  0
   93.5961   51.1154  268.3351 C   0  0  0  0  0  0  0  0  0  0  0  0
   94.5698   51.9449  267.8031 C   0  0  0  0  0  0  0  0  0  0  0  0
   94.8585   53.1669  268.3850 C   0  0  0  0  0  0  0  0  0  0  0  0
   94.1392   53.5776  269.5454 C   0  0  0  0  0  0  0  0  0  0  0  0
   93.2374   52.7442  270.0633 C   0  0  0  0  0  0  0  0  0  0  0  0
   92.9105   51.5224  269.5097 C   0  0  0  0  0  0  0  0  0  0  0  0
   90.2895   48.1235  266.3187 N   0  0  0  0  0  0  0  0  0  0  0  0
   89.7108   47.3399  265.2871 C   0  0  0  0  0  0  0  0  0  0  0  0
   90.4200   47.1068  264.0926 C   0  0  0  0  0  0  0  0  0  0  0  0
   89.9178   46.4353  263.0435 N   0  0  0  0  0  0  0  0  0  0  0  0
   88.6596   45.9305  263.1598 C   0  0  0  0  0  0  0  0  0  0  0  0
   87.8887   46.0861  264.3126 C   0  0  0  0  0  0  0  0  0  0  0  0
   88.4246   46.7965  265.3987 C   0  0  0  0  0  0  0  0  0  0  0  0
   87.4849   46.9002  266.9304 S   0  0  0  0  0  0  0  0  0  0  0  0
   86.1214   46.3894  266.6610 O   0  0  0  0  0  0  0  0  0  0  0  0
   87.6704   48.2235  267.4846 O   0  0  0  0  0  0  0  0  0  0  0  0
   88.3749   45.6310  268.0078 C   0  0  0  0  0  0  0  0  0  0  0  0
   92.5599   53.1152  271.2532 N   0  0  0  0  0  0  0  0  0  0  0  0
   92.3043   46.4224  265.9664 H   0  0  0  0  0  0  0  0  0  0  0  0
   91.2065   50.2655  267.4562 H   0  0  0  0  0  0  0  0  0  0  0  0
   94.5258   49.1818  266.5327 H   0  0  0  0  0  0  0  0  0  0  0  0
   97.4806   48.1057  268.0323 H   0  0  0  0  0  0  0  0  0  0  0  0
   96.8056   45.9472  267.1187 H   0  0  0  0  0  0  0  0  0  0  0  0
   95.5067   51.3686  267.8039 H   0  0  0  0  0  0  0  0  0  0  0  0
   94.2695   52.1551  266.7660 H   0  0  0  0  0  0  0  0  0  0  0  0
   95.6221   53.8039  267.9637 H   0  0  0  0  0  0  0  0  0  0  0  0
   94.3211   54.5427  269.9948 H   0  0  0  0  0  0  0  0  0  0  0  0
   92.1547   50.8942  269.9575 H   0  0  0  0  0  0  0  0  0  0  0  0
   91.4266   47.4906  264.0159 H   0  0  0  0  0  0  0  0  0  0  0  0
   88.2404   45.3872  262.3258 H   0  0  0  0  0  0  0  0  0  0  0  0
   86.8951   45.6665  264.3685 H   0  0  0  0  0  0  0  0  0  0  0  0
   87.8952   45.5880  268.9968 H   0  0  0  0  0  0  0  0  0  0  0  0
   88.3195   44.6416  267.5303 H   0  0  0  0  0  0  0  0  0  0  0  0
   89.4289   45.9236  268.1241 H   0  0  0  0  0  0  0  0  0  0  0  0
   91.9085   52.4157  271.5470 H   0  0  0  0  0  0  0  0  0  0  0  0
  1  4  2  0  0  0  0
  1  6  1  0  0  0  0
  1 11  1  0  0  0  0
  2  3  1  0  0  0  0
  2  5  2  0  0  0  0
  3  4  1  0  0  0  0
  3 17  2  0  0  0  0
  5  6  1  0  0  0  0
  5 10  1  0  0  0  0
  6  7  1  0  0  0  0
  7  8  2  0  0  0  0
  8  9  1  0  0  0  0
  9 10  2  0  0  0  0
 11 12  1  0  0  0  0
 11 16  2  0  0  0  0
 12 13  1  0  0  0  0
 13 14  2  0  0  0  0
 14 15  1  0  0  0  0
 15 16  1  0  0  0  0
 15 28  2  0  0  0  0
 17 18  1  0  0  0  0
 18 19  2  0  0  0  0
 18 23  1  0  0  0  0
 19 20  1  0  0  0  0
 20 21  2  0  0  0  0
 21 22  1  0  0  0  0
 22 23  2  0  0  0  0
 23 24  1  0  0  0  0
 24 25  2  0  0  0  0
 24 26  2  0  0  0  0
 24 27  1  0  0  0  0
  2 29  1  0  0  0  0
  4 30  1  0  0  0  0
  6 31  1  0  0  0  0
  8 32  1  0  0  0  0
  9 33  1  0  0  0  0
 12 34  1  0  0  0  0
 12 35  1  0  0  0  0
 13 36  1  0  0  0  0
 14 37  1  0  0  0  0
 16 38  1  0  0  0  0
 19 39  1  0  0  0  0
 21 40  1  0  0  0  0
 22 41  1  0  0  0  0
 27 42  1  0  0  0  0
 27 43  1  0  0  0  0
 27 44  1  0  0  0  0
 28 45  1  0  0  0  0
M  END
> <ID>
39

> <IC50[uM]>
5.299

$$$$
39
  -OEChem-05192314313D
 Structure written by MMmdl.
 45 48  0     1  0  0  0  0  0999 V2000
   93.2802   49.7985  267.6875 C   0  0  0  0  0  0  0  0  0  0  0  0
   92.5744   47.3376  266.4723 C   0  0  0  0  0  0  0  0  0  0  0  0
   91.6199   48.3263  266.6804 C   0  0  0  0  0  0  0  0  0  0  0  0
   91.9714   49.5220  267.2872 C   0  0  0  0  0  0  0  0  0  0  0  0
   93.9019   47.5331  266.9251 C   0  0  0  0  0  0  0  0  0  0  0  0
   94.2659   48.7775  267.5222 C   0  0  3  0  0  0  0  0  0  0  0  0
   95.5666   48.9595  267.9453 N   0  0  0  0  0  0  0  0  0  0  0  0
   96.4488   47.9549  267.7510 C   0  0  0  0  0  0  0  0  0  0  0  0
   96.0765   46.7394  267.2041 C   0  0  0  0  0  0  0  0  0  0  0  0
   94.7993   46.5295  266.7714 N   0  0  0  0  0  0  0  0  0  0  0  0
   93.5961   51.1154  268.3351 C   0  0  0  0  0  0  0  0  0  0  0  0
   94.5698   51.9449  267.8031 C   0  0  0  0  0  0  0  0  0  0  0  0
   94.8585   53.1669  268.3850 C   0  0  0  0  0  0  0  0  0  0  0  0
   94.1392   53.5776  269.5454 C   0  0  0  0  0  0  0  0  0  0  0  0
   93.2374   52.7442  270.0633 C   0  0  0  0  0  0  0  0  0  0  0  0
   92.9105   51.5224  269.5097 C   0  0  0  0  0  0  0  0  0  0  0  0
   90.2895   48.1235  266.3187 N   0  0  0  0  0  0  0  0  0  0  0  0
   89.7108   47.3399  265.2871 C   0  0  0  0  0  0  0  0  0  0  0  0
   90.4200   47.1068  264.0926 C   0  0  0  0  0  0  0  0  0  0  0  0
   89.9178   46.4353  263.0435 N   0  0  0  0  0  0  0  0  0  0  0  0
   88.6596   45.9305  263.1598 C   0  0  0  0  0  0  0  0  0  0  0  0
   87.8887   46.0861  264.3126 C   0  0  0  0  0  0  0  0  0  0  0  0
   88.4246   46.7965  265.3987 C   0  0  0  0  0  0  0  0  0  0  0  0
   87.4849   46.9002  266.9304 S   0  0  0  0  0  0  0  0  0  0  0  0
   86.1214   46.3894  266.6610 O   0  0  0  0  0  0  0  0  0  0  0  0
   87.6704   48.2235  267.4846 O   0  0  0  0  0  0  0  0  0  0  0  0
   88.3749   45.6310  268.0078 C   0  0  0  0  0  0  0  0  0  0  0  0
   92.5599   53.1152  271.2532 N   0  0  0  0  0  0  0  0  0  0  0  0
   92.3043   46.4224  265.9664 H   0  0  0  0  0  0  0  0  0  0  0  0
   91.2065   50.2655  267.4562 H   0  0  0  0  0  0  0  0  0  0  0  0
   94.5258   49.1818  266.5327 H   0  0  0  0  0  0  0  0  0  0  0  0
   97.4806   48.1057  268.0323 H   0  0  0  0  0  0  0  0  0  0  0  0
   96.8056   45.9472  267.1187 H   0  0  0  0  0  0  0  0  0  0  0  0
   95.1111   51.6336  266.9219 H   0  0  0  0  0  0  0  0  0  0  0  0
   95.6221   53.8039  267.9637 H   0  0  0  0  0  0  0  0  0  0  0  0
   94.3211   54.5427  269.9948 H   0  0  0  0  0  0  0  0  0  0  0  0
   91.8376   51.5496  269.2687 H   0  0  0  0  0  0  0  0  0  0  0  0
   93.0946   50.7563  270.2773 H   0  0  0  0  0  0  0  0  0  0  0  0
   91.4266   47.4906  264.0159 H   0  0  0  0  0  0  0  0  0  0  0  0
   88.2404   45.3872  262.3258 H   0  0  0  0  0  0  0  0  0  0  0  0
   86.8951   45.6665  264.3685 H   0  0  0  0  0  0  0  0  0  0  0  0
   87.8952   45.5880  268.9968 H   0  0  0  0  0  0  0  0  0  0  0  0
   88.3195   44.6416  267.5303 H   0  0  0  0  0  0  0  0  0  0  0  0
   89.4289   45.9236  268.1241 H   0  0  0  0  0  0  0  0  0  0  0  0
   91.9085   52.4157  271.5470 H   0  0  0  0  0  0  0  0  0  0  0  0
  1  4  2  0  0  0  0
  1  6  1  0  0  0  0
  1 11  1  0  0  0  0
  2  3  1  0  0  0  0
  2  5  2  0  0  0  0
  3  4  1  0  0  0  0
  3 17  2  0  0  0  0
  5  6  1  0  0  0  0
  5 10  1  0  0  0  0
  6  7  1  0  0  0  0
  7  8  2  0  0  0  0
  8  9  1  0  0  0  0
  9 10  2  0  0  0  0
 11 12  2  0  0  0  0
 11 16  1  0  0  0  0
 12 13  1  0  0  0  0
 13 14  2  0  0  0  0
 14 15  1  0  0  0  0
 15 16  1  0  0  0  0
 15 28  2  0  0  0  0
 17 18  1  0  0  0  0
 18 19  2  0  0  0  0
 18 23  1  0  0  0  0
 19 20  1  0  0  0  0
 20 21  2  0  0  0  0
 21 22  1  0  0  0  0
 22 23  2  0  0  0  0
 23 24  1  0  0  0  0
 24 25  2  0  0  0  0
 24 26  2  0  0  0  0
 24 27  1  0  0  0  0
  2 29  1  0  0  0  0
  4 30  1  0  0  0  0
  6 31  1  0  0  0  0
  8 32  1  0  0  0  0
  9 33  1  0  0  0  0
 12 34  1  0  0  0  0
 13 35  1  0  0  0  0
 14 36  1  0  0  0  0
 16 37  1  0  0  0  0
 16 38  1  0  0  0  0
 19 39  1  0  0  0  0
 21 40  1  0  0  0  0
 22 41  1  0  0  0  0
 27 42  1  0  0  0  0
 27 43  1  0  0  0  0
 27 44  1  0  0  0  0
 28 45  1  0  0  0  0
M  END
> <ID>
39

> <IC50[uM]>
5.299

$$$$
39
  -OEChem-05192314313D
 Structure written by MMmdl.
 45 48  0     0  0  0  0  0  0999 V2000
   93.2802   49.7985  267.6875 C   0  0  0  0  0  0  0  0  0  0  0  0
   92.5744   47.3376  266.4723 C   0  0  0  0  0  0  0  0  0  0  0  0
   91.6199   48.3263  266.6804 C   0  0  0  0  0  0  0  0  0  0  0  0
   91.9714   49.5220  267.2872 C   0  0  0  0  0  0  0  0  0  0  0  0
   93.9019   47.5331  266.9251 C   0  0  0  0  0  0  0  0  0  0  0  0
   94.2659   48.7775  267.5222 C   0  0  0  0  0  0  0  0  0  0  0  0
   95.5666   48.9595  267.9453 N   0  0  0  0  0  0  0  0  0  0  0  0
   96.4488   47.9549  267.7510 C   0  0  0  0  0  0  0  0  0  0  0  0
   96.0765   46.7394  267.2041 C   0  0  0  0  0  0  0  0  0  0  0  0
   94.7993   46.5295  266.7714 N   0  0  0  0  0  0  0  0  0  0  0  0
   93.5961   51.1154  268.3351 C   0  0  0  0  0  0  0  0  0  0  0  0
   94.5698   51.9449  267.8031 C   0  0  0  0  0  0  0  0  0  0  0  0
   94.8585   53.1669  268.3850 C   0  0  0  0  0  0  0  0  0  0  0  0
   94.1392   53.5776  269.5454 C   0  0  0  0  0  0  0  0  0  0  0  0
   93.2374   52.7442  270.0633 C   0  0  0  0  0  0  0  0  0  0  0  0
   92.9105   51.5224  269.5097 C   0  0  0  0  0  0  0  0  0  0  0  0
   90.2895   48.1235  266.3187 N   0  0  0  0  0  0  0  0  0  0  0  0
   89.7108   47.3399  265.2871 C   0  0  0  0  0  0  0  0  0  0  0  0
   90.4200   47.1068  264.0926 C   0  0  0  0  0  0  0  0  0  0  0  0
   89.9178   46.4353  263.0435 N   0  0  0  0  0  0  0  0  0  0  0  0
   88.6596   45.9305  263.1598 C   0  0  0  0  0  0  0  0  0  0  0  0
   87.8887   46.0861  264.3126 C   0  0  0  0  0  0  0  0  0  0  0  0
   88.4246   46.7965  265.3987 C   0  0  0  0  0  0  0  0  0  0  0  0
   87.4849   46.9002  266.9304 S   0  0  0  0  0  0  0  0  0  0  0  0
   86.1214   46.3894  266.6610 O   0  0  0  0  0  0  0  0  0  0  0  0
   87.6704   48.2235  267.4846 O   0  0  0  0  0  0  0  0  0  0  0  0
   88.3749   45.6310  268.0078 C   0  0  0  0  0  0  0  0  0  0  0  0
   92.5599   53.1152  271.2532 N   0  0  0  0  0  0  0  0  0  0  0  0
   92.3043   46.4224  265.9664 H   0  0  0  0  0  0  0  0  0  0  0  0
   91.2065   50.2655  267.4562 H   0  0  0  0  0  0  0  0  0  0  0  0
   97.2335   48.3589  267.0945 H   0  0  0  0  0  0  0  0  0  0  0  0
   96.8775   47.7283  268.7383 H   0  0  0  0  0  0  0  0  0  0  0  0
   96.8056   45.9472  267.1187 H   0  0  0  0  0  0  0  0  0  0  0  0
   95.1111   51.6336  266.9219 H   0  0  0  0  0  0  0  0  0  0  0  0
   95.6221   53.8039  267.9637 H   0  0  0  0  0  0  0  0  0  0  0  0
   94.8809   53.7825  270.3315 H   0  0  0  0  0  0  0  0  0  0  0  0
   93.6114   54.5077  269.2878 H   0  0  0  0  0  0  0  0  0  0  0  0
   92.1547   50.8942  269.9575 H   0  0  0  0  0  0  0  0  0  0  0  0
   91.4266   47.4906  264.0159 H   0  0  0  0  0  0  0  0  0  0  0  0
   88.2404   45.3872  262.3258 H   0  0  0  0  0  0  0  0  0  0  0  0
   86.8951   45.6665  264.3685 H   0  0  0  0  0  0  0  0  0  0  0  0
   87.8952   45.5880  268.9968 H   0  0  0  0  0  0  0  0  0  0  0  0
   88.3195   44.6416  267.5303 H   0  0  0  0  0  0  0  0  0  0  0  0
   89.4289   45.9236  268.1241 H   0  0  0  0  0  0  0  0  0  0  0  0
   91.9085   52.4157  271.5470 H   0  0  0  0  0  0  0  0  0  0  0  0
  1  4  2  0  0  0  0
  1  6  1  0  0  0  0
  1 11  1  0  0  0  0
  2  3  1  0  0  0  0
  2  5  2  0  0  0  0
  3  4  1  0  0  0  0
  3 17  2  0  0  0  0
  5  6  1  0  0  0  0
  5 10  1  0  0  0  0
  6  7  2  0  0  0  0
  7  8  1  0  0  0  0
  8  9  1  0  0  0  0
  9 10  2  0  0  0  0
 11 12  1  0  0  0  0
 11 16  2  0  0  0  0
 12 13  2  0  0  0  0
 13 14  1  0  0  0  0
 14 15  1  0  0  0  0
 15 16  1  0  0  0  0
 15 28  2  0  0  0  0
 17 18  1  0  0  0  0
 18 19  2  0  0  0  0
 18 23  1  0  0  0  0
 19 20  1  0  0  0  0
 20 21  2  0  0  0  0
 21 22  1  0  0  0  0
 22 23  2  0  0  0  0
 23 24  1  0  0  0  0
 24 25  2  0  0  0  0
 24 26  2  0  0  0  0
 24 27  1  0  0  0  0
  2 29  1  0  0  0  0
  4 30  1  0  0  0  0
  8 31  1  0  0  0  0
  8 32  1  0  0  0  0
  9 33  1  0  0  0  0
 12 34  1  0  0  0  0
 13 35  1  0  0  0  0
 14 36  1  0  0  0  0
 14 37  1  0  0  0  0
 16 38  1  0  0  0  0
 19 39  1  0  0  0  0
 21 40  1  0  0  0  0
 22 41  1  0  0  0  0
 27 42  1  0  0  0  0
 27 43  1  0  0  0  0
 27 44  1  0  0  0  0
 28 45  1  0  0  0  0
M  END
> <ID>
39

> <IC50[uM]>
5.299

$$$$
39
  -OEChem-05192314313D
 Structure written by MMmdl.
 45 48  0     0  0  0  0  0  0999 V2000
   93.2802   49.7985  267.6875 C   0  0  0  0  0  0  0  0  0  0  0  0
   92.5744   47.3376  266.4723 C   0  0  0  0  0  0  0  0  0  0  0  0
   91.6199   48.3263  266.6804 C   0  0  0  0  0  0  0  0  0  0  0  0
   91.9714   49.5220  267.2872 C   0  0  0  0  0  0  0  0  0  0  0  0
   93.9019   47.5331  266.9251 C   0  0  0  0  0  0  0  0  0  0  0  0
   94.2659   48.7775  267.5222 C   0  0  0  0  0  0  0  0  0  0  0  0
   95.5666   48.9595  267.9453 N   0  0  0  0  0  0  0  0  0  0  0  0
   96.4488   47.9549  267.7510 C   0  0  0  0  0  0  0  0  0  0  0  0
   96.0765   46.7394  267.2041 C   0  0  0  0  0  0  0  0  0  0  0  0
   94.7993   46.5295  266.7714 N   0  0  0  0  0  0  0  0  0  0  0  0
   93.5961   51.1154  268.3351 C   0  0  0  0  0  0  0  0  0  0  0  0
   94.5698   51.9449  267.8031 C   0  0  0  0  0  0  0  0  0  0  0  0
   94.8585   53.1669  268.3850 C   0  0  0  0  0  0  0  0  0  0  0  0
   94.1392   53.5776  269.5454 C   0  0  0  0  0  0  0  0  0  0  0  0
   93.2374   52.7442  270.0633 C   0  0  0  0  0  0  0  0  0  0  0  0
   92.9105   51.5224  269.5097 C   0  0  0  0  0  0  0  0  0  0  0  0
   90.2895   48.1235  266.3187 N   0  0  0  0  0  0  0  0  0  0  0  0
   89.7108   47.3399  265.2871 C   0  0  0  0  0  0  0  0  0  0  0  0
   90.4200   47.1068  264.0926 C   0  0  0  0  0  0  0  0  0  0  0  0
   89.9178   46.4353  263.0435 N   0  0  0  0  0  0  0  0  0  0  0  0
   88.6596   45.9305  263.1598 C   0  0  0  0  0  0  0  0  0  0  0  0
   87.8887   46.0861  264.3126 C   0  0  0  0  0  0  0  0  0  0  0  0
   88.4246   46.7965  265.3987 C   0  0  0  0  0  0  0  0  0  0  0  0
   87.4849   46.9002  266.9304 S   0  0  0  0  0  0  0  0  0  0  0  0
   86.1214   46.3894  266.6610 O   0  0  0  0  0  0  0  0  0  0  0  0
   87.6704   48.2235  267.4846 O   0  0  0  0  0  0  0  0  0  0  0  0
   88.3749   45.6310  268.0078 C   0  0  0  0  0  0  0  0  0  0  0  0
   92.5599   53.1152  271.2532 N   0  0  0  0  0  0  0  0  0  0  0  0
   92.3043   46.4224  265.9664 H   0  0  0  0  0  0  0  0  0  0  0  0
   91.2065   50.2655  267.4562 H   0  0  0  0  0  0  0  0  0  0  0  0
   97.2335   48.3589  267.0945 H   0  0  0  0  0  0  0  0  0  0  0  0
   96.8775   47.7283  268.7383 H   0  0  0  0  0  0  0  0  0  0  0  0
   96.8056   45.9472  267.1187 H   0  0  0  0  0  0  0  0  0  0  0  0
   95.5067   51.3686  267.8039 H   0  0  0  0  0  0  0  0  0  0  0  0
   94.2695   52.1551  266.7660 H   0  0  0  0  0  0  0  0  0  0  0  0
   95.6221   53.8039  267.9637 H   0  0  0  0  0  0  0  0  0  0  0  0
   94.3211   54.5427  269.9948 H   0  0  0  0  0  0  0  0  0  0  0  0
   92.1547   50.8942  269.9575 H   0  0  0  0  0  0  0  0  0  0  0  0
   91.4266   47.4906  264.0159 H   0  0  0  0  0  0  0  0  0  0  0  0
   88.2404   45.3872  262.3258 H   0  0  0  0  0  0  0  0  0  0  0  0
   86.8951   45.6665  264.3685 H   0  0  0  0  0  0  0  0  0  0  0  0
   87.8952   45.5880  268.9968 H   0  0  0  0  0  0  0  0  0  0  0  0
   88.3195   44.6416  267.5303 H   0  0  0  0  0  0  0  0  0  0  0  0
   89.4289   45.9236  268.1241 H   0  0  0  0  0  0  0  0  0  0  0  0
   91.9085   52.4157  271.5470 H   0  0  0  0  0  0  0  0  0  0  0  0
  1  4  2  0  0  0  0
  1  6  1  0  0  0  0
  1 11  1  0  0  0  0
  2  3  1  0  0  0  0
  2  5  2  0  0  0  0
  3  4  1  0  0  0  0
  3 17  2  0  0  0  0
  5  6  1  0  0  0  0
  5 10  1  0  0  0  0
  6  7  2  0  0  0  0
  7  8  1  0  0  0  0
  8  9  1  0  0  0  0
  9 10  2  0  0  0  0
 11 12  1  0  0  0  0
 11 16  2  0  0  0  0
 12 13  1  0  0  0  0
 13 14  2  0  0  0  0
 14 15  1  0  0  0  0
 15 16  1  0  0  0  0
 15 28  2  0  0  0  0
 17 18  1  0  0  0  0
 18 19  2  0  0  0  0
 18 23  1  0  0  0  0
 19 20  1  0  0  0  0
 20 21  2  0  0  0  0
 21 22  1  0  0  0  0
 22 23  2  0  0  0  0
 23 24  1  0  0  0  0
 24 25  2  0  0  0  0
 24 26  2  0  0  0  0
 24 27  1  0  0  0  0
  2 29  1  0  0  0  0
  4 30  1  0  0  0  0
  8 31  1  0  0  0  0
  8 32  1  0  0  0  0
  9 33  1  0  0  0  0
 12 34  1  0  0  0  0
 12 35  1  0  0  0  0
 13 36  1  0  0  0  0
 14 37  1  0  0  0  0
 16 38  1  0  0  0  0
 19 39  1  0  0  0  0
 21 40  1  0  0  0  0
 22 41  1  0  0  0  0
 27 42  1  0  0  0  0
 27 43  1  0  0  0  0
 27 44  1  0  0  0  0
 28 45  1  0  0  0  0
M  END
> <ID>
39

> <IC50[uM]>
5.299

$$$$
39
  -OEChem-05192314313D
 Structure written by MMmdl.
 45 48  0     0  0  0  0  0  0999 V2000
   93.2802   49.7985  267.6875 C   0  0  0  0  0  0  0  0  0  0  0  0
   92.5744   47.3376  266.4723 C   0  0  0  0  0  0  0  0  0  0  0  0
   91.6199   48.3263  266.6804 C   0  0  0  0  0  0  0  0  0  0  0  0
   91.9714   49.5220  267.2872 C   0  0  0  0  0  0  0  0  0  0  0  0
   93.9019   47.5331  266.9251 C   0  0  0  0  0  0  0  0  0  0  0  0
   94.2659   48.7775  267.5222 C   0  0  0  0  0  0  0  0  0  0  0  0
   95.5666   48.9595  267.9453 N   0  0  0  0  0  0  0  0  0  0  0  0
   96.4488   47.9549  267.7510 C   0  0  0  0  0  0  0  0  0  0  0  0
   96.0765   46.7394  267.2041 C   0  0  0  0  0  0  0  0  0  0  0  0
   94.7993   46.5295  266.7714 N   0  0  0  0  0  0  0  0  0  0  0  0
   93.5961   51.1154  268.3351 C   0  0  0  0  0  0  0  0  0  0  0  0
   94.5698   51.9449  267.8031 C   0  0  0  0  0  0  0  0  0  0  0  0
   94.8585   53.1669  268.3850 C   0  0  0  0  0  0  0  0  0  0  0  0
   94.1392   53.5776  269.5454 C   0  0  0  0  0  0  0  0  0  0  0  0
   93.2374   52.7442  270.0633 C   0  0  0  0  0  0  0  0  0  0  0  0
   92.9105   51.5224  269.5097 C   0  0  0  0  0  0  0  0  0  0  0  0
   90.2895   48.1235  266.3187 N   0  0  0  0  0  0  0  0  0  0  0  0
   89.7108   47.3399  265.2871 C   0  0  0  0  0  0  0  0  0  0  0  0
   90.4200   47.1068  264.0926 C   0  0  0  0  0  0  0  0  0  0  0  0
   89.9178   46.4353  263.0435 N   0  0  0  0  0  0  0  0  0  0  0  0
   88.6596   45.9305  263.1598 C   0  0  0  0  0  0  0  0  0  0  0  0
   87.8887   46.0861  264.3126 C   0  0  0  0  0  0  0  0  0  0  0  0
   88.4246   46.7965  265.3987 C   0  0  0  0  0  0  0  0  0  0  0  0
   87.4849   46.9002  266.9304 S   0  0  0  0  0  0  0  0  0  0  0  0
   86.1214   46.3894  266.6610 O   0  0  0  0  0  0  0  0  0  0  0  0
   87.6704   48.2235  267.4846 O   0  0  0  0  0  0  0  0  0  0  0  0
   88.3749   45.6310  268.0078 C   0  0  0  0  0  0  0  0  0  0  0  0
   92.5599   53.1152  271.2532 N   0  0  0  0  0  0  0  0  0  0  0  0
   92.3043   46.4224  265.9664 H   0  0  0  0  0  0  0  0  0  0  0  0
   91.2065   50.2655  267.4562 H   0  0  0  0  0  0  0  0  0  0  0  0
   97.2335   48.3589  267.0945 H   0  0  0  0  0  0  0  0  0  0  0  0
   96.8775   47.7283  268.7383 H   0  0  0  0  0  0  0  0  0  0  0  0
   96.8056   45.9472  267.1187 H   0  0  0  0  0  0  0  0  0  0  0  0
   95.1111   51.6336  266.9219 H   0  0  0  0  0  0  0  0  0  0  0  0
   95.6221   53.8039  267.9637 H   0  0  0  0  0  0  0  0  0  0  0  0
   94.3211   54.5427  269.9948 H   0  0  0  0  0  0  0  0  0  0  0  0
   91.8376   51.5496  269.2687 H   0  0  0  0  0  0  0  0  0  0  0  0
   93.0946   50.7563  270.2773 H   0  0  0  0  0  0  0  0  0  0  0  0
   91.4266   47.4906  264.0159 H   0  0  0  0  0  0  0  0  0  0  0  0
   88.2404   45.3872  262.3258 H   0  0  0  0  0  0  0  0  0  0  0  0
   86.8951   45.6665  264.3685 H   0  0  0  0  0  0  0  0  0  0  0  0
   87.8952   45.5880  268.9968 H   0  0  0  0  0  0  0  0  0  0  0  0
   88.3195   44.6416  267.5303 H   0  0  0  0  0  0  0  0  0  0  0  0
   89.4289   45.9236  268.1241 H   0  0  0  0  0  0  0  0  0  0  0  0
   91.9085   52.4157  271.5470 H   0  0  0  0  0  0  0  0  0  0  0  0
  1  4  2  0  0  0  0
  1  6  1  0  0  0  0
  1 11  1  0  0  0  0
  2  3  1  0  0  0  0
  2  5  2  0  0  0  0
  3  4  1  0  0  0  0
  3 17  2  0  0  0  0
  5  6  1  0  0  0  0
  5 10  1  0  0  0  0
  6  7  2  0  0  0  0
  7  8  1  0  0  0  0
  8  9  1  0  0  0  0
  9 10  2  0  0  0  0
 11 12  2  0  0  0  0
 11 16  1  0  0  0  0
 12 13  1  0  0  0  0
 13 14  2  0  0  0  0
 14 15  1  0  0  0  0
 15 16  1  0  0  0  0
 15 28  2  0  0  0  0
 17 18  1  0  0  0  0
 18 19  2  0  0  0  0
 18 23  1  0  0  0  0
 19 20  1  0  0  0  0
 20 21  2  0  0  0  0
 21 22  1  0  0  0  0
 22 23  2  0  0  0  0
 23 24  1  0  0  0  0
 24 25  2  0  0  0  0
 24 26  2  0  0  0  0
 24 27  1  0  0  0  0
  2 29  1  0  0  0  0
  4 30  1  0  0  0  0
  8 31  1  0  0  0  0
  8 32  1  0  0  0  0
  9 33  1  0  0  0  0
 12 34  1  0  0  0  0
 13 35  1  0  0  0  0
 14 36  1  0  0  0  0
 16 37  1  0  0  0  0
 16 38  1  0  0  0  0
 19 39  1  0  0  0  0
 21 40  1  0  0  0  0
 22 41  1  0  0  0  0
 27 42  1  0  0  0  0
 27 43  1  0  0  0  0
 27 44  1  0  0  0  0
 28 45  1  0  0  0  0
M  END
> <ID>
39

> <IC50[uM]>
5.299

$$$$
