24
  -OEChem-05192314313D
 Structure written by MMmdl.
 46 50  0     0  0  0  0  0  0999 V2000
   94.7934   46.5310  266.7559 N   0  0  0  0  0  0  0  0  0  0  0  0
   95.5582   48.9639  267.9334 N   0  0  0  0  0  0  0  0  0  0  0  0
   96.4466   47.9569  267.7437 C   0  0  0  0  0  0  0  0  0  0  0  0
   96.0618   46.7455  267.1837 C   0  0  0  0  0  0  0  0  0  0  0  0
   94.2697   48.7791  267.5052 C   0  0  0  0  0  0  0  0  0  0  0  0
   93.8901   47.5407  266.8989 C   0  0  0  0  0  0  0  0  0  0  0  0
   92.5600   47.3451  266.4593 C   0  0  0  0  0  0  0  0  0  0  0  0
   91.6063   48.3396  266.6555 C   0  0  0  0  0  0  0  0  0  0  0  0
   91.9699   49.5311  267.2767 C   0  0  0  0  0  0  0  0  0  0  0  0
   93.2841   49.7958  267.6804 C   0  0  0  0  0  0  0  0  0  0  0  0
   93.5907   51.0925  268.3264 C   0  0  0  0  0  0  0  0  0  0  0  0
   90.2614   48.1538  266.3036 N   0  0  0  0  0  0  0  0  0  0  0  0
   94.5668   51.9472  267.7977 C   0  0  0  0  0  0  0  0  0  0  0  0
   94.8663   53.1821  268.3739 C   0  0  0  0  0  0  0  0  0  0  0  0
   92.8923   51.4433  269.4840 C   0  0  0  0  0  0  0  0  0  0  0  0
   93.2012   52.6678  270.0771 C   0  0  0  0  0  0  0  0  0  0  0  0
   94.1512   53.5677  269.5161 C   0  0  0  0  0  0  0  0  0  0  0  0
   94.1492   54.7274  270.3470 C   0  0  0  0  0  0  0  0  0  0  0  0
   93.2774   54.4889  271.3839 C   0  0  0  0  0  0  0  0  0  0  0  0
   92.7265   53.2453  271.2434 N   0  0  0  0  0  0  0  0  0  0  0  0
   91.8100   52.6331  272.1856 C   0  0  0  0  0  0  0  0  0  0  0  0
   89.6457   47.3771  265.3001 C   0  0  0  0  0  0  0  0  0  0  0  0
   90.3572   47.0310  264.1425 C   0  0  0  0  0  0  0  0  0  0  0  0
   89.7478   46.3118  263.1147 C   0  0  0  0  0  0  0  0  0  0  0  0
   88.4149   45.9293  263.2275 C   0  0  0  0  0  0  0  0  0  0  0  0
   87.6884   46.2695  264.3653 C   0  0  0  0  0  0  0  0  0  0  0  0
   88.2903   46.9920  265.4020 C   0  0  0  0  0  0  0  0  0  0  0  0
   87.4679   47.3024  266.5683 C   0  0  0  0  0  0  0  0  0  0  0  0
   86.8158   47.5543  267.4897 N   0  0  0  0  0  0  0  0  0  0  0  0
   97.4767   48.1002  268.0347 H   0  0  0  0  0  0  0  0  0  0  0  0
   96.7911   45.9549  267.0866 H   0  0  0  0  0  0  0  0  0  0  0  0
   92.2840   46.4224  265.9705 H   0  0  0  0  0  0  0  0  0  0  0  0
   91.2106   50.2785  267.4537 H   0  0  0  0  0  0  0  0  0  0  0  0
   89.6183   48.6686  266.8705 H   0  0  0  0  0  0  0  0  0  0  0  0
   95.1059   51.6396  266.9138 H   0  0  0  0  0  0  0  0  0  0  0  0
   95.6270   53.8223  267.9521 H   0  0  0  0  0  0  0  0  0  0  0  0
   92.1412   50.7910  269.9044 H   0  0  0  0  0  0  0  0  0  0  0  0
   94.7260   55.6270  270.1906 H   0  0  0  0  0  0  0  0  0  0  0  0
   93.0611   55.1785  272.1864 H   0  0  0  0  0  0  0  0  0  0  0  0
   91.6148   53.3302  273.0138 H   0  0  0  0  0  0  0  0  0  0  0  0
   90.8646   52.3956  271.6758 H   0  0  0  0  0  0  0  0  0  0  0  0
   92.2551   51.7086  272.5820 H   0  0  0  0  0  0  0  0  0  0  0  0
   91.3917   47.3255  264.0454 H   0  0  0  0  0  0  0  0  0  0  0  0
   90.3109   46.0516  262.2306 H   0  0  0  0  0  0  0  0  0  0  0  0
   87.9443   45.3690  262.4332 H   0  0  0  0  0  0  0  0  0  0  0  0
   86.6530   45.9738  264.4486 H   0  0  0  0  0  0  0  0  0  0  0  0
  1  4  2  0  0  0  0
  1  6  1  0  0  0  0
  2  3  2  0  0  0  0
  2  5  1  0  0  0  0
  3  4  1  0  0  0  0
  5  6  2  0  0  0  0
  5 10  1  0  0  0  0
  6  7  1  0  0  0  0
  7  8  2  0  0  0  0
  8  9  1  0  0  0  0
  8 12  1  0  0  0  0
  9 10  2  0  0  0  0
 10 11  1  0  0  0  0
 11 13  2  0  0  0  0
 11 15  1  0  0  0  0
 12 22  1  0  0  0  0
 13 14  1  0  0  0  0
 14 17  2  0  0  0  0
 15 16  2  0  0  0  0
 16 17  1  0  0  0  0
 16 20  1  0  0  0  0
 17 18  1  0  0  0  0
 18 19  2  0  0  0  0
 19 20  1  0  0  0  0
 20 21  1  0  0  0  0
 22 23  2  0  0  0  0
 22 27  1  0  0  0  0
 23 24  1  0  0  0  0
 24 25  2  0  0  0  0
 25 26  1  0  0  0  0
 26 27  2  0  0  0  0
 27 28  1  0  0  0  0
 28 29  3  0  0  0  0
  3 30  1  0  0  0  0
  4 31  1  0  0  0  0
  7 32  1  0  0  0  0
  9 33  1  0  0  0  0
 12 34  1  0  0  0  0
 13 35  1  0  0  0  0
 14 36  1  0  0  0  0
 15 37  1  0  0  0  0
 18 38  1  0  0  0  0
 19 39  1  0  0  0  0
 21 40  1  0  0  0  0
 21 41  1  0  0  0  0
 21 42  1  0  0  0  0
 23 43  1  0  0  0  0
 24 44  1  0  0  0  0
 25 45  1  0  0  0  0
 26 46  1  0  0  0  0
M  END
> <ID>
24

> <IC50[uM]>
0.315

$$$$
24
  -OEChem-05192314313D
 Structure written by MMmdl.
 46 50  0     0  0  0  0  0  0999 V2000
   94.7934   46.5310  266.7559 N   0  0  0  0  0  0  0  0  0  0  0  0
   95.5582   48.9639  267.9334 N   0  0  0  0  0  0  0  0  0  0  0  0
   96.4466   47.9569  267.7437 C   0  0  0  0  0  0  0  0  0  0  0  0
   96.0618   46.7455  267.1837 C   0  0  0  0  0  0  0  0  0  0  0  0
   94.2697   48.7791  267.5052 C   0  0  0  0  0  0  0  0  0  0  0  0
   93.8901   47.5407  266.8989 C   0  0  0  0  0  0  0  0  0  0  0  0
   92.5600   47.3451  266.4593 C   0  0  0  0  0  0  0  0  0  0  0  0
   91.6063   48.3396  266.6555 C   0  0  0  0  0  0  0  0  0  0  0  0
   91.9699   49.5311  267.2767 C   0  0  0  0  0  0  0  0  0  0  0  0
   93.2841   49.7958  267.6804 C   0  0  0  0  0  0  0  0  0  0  0  0
   93.5907   51.0925  268.3264 C   0  0  0  0  0  0  0  0  0  0  0  0
   90.2614   48.1538  266.3036 N   0  0  0  0  0  0  0  0  0  0  0  0
   94.5668   51.9472  267.7977 C   0  0  0  0  0  0  0  0  0  0  0  0
   94.8663   53.1821  268.3739 C   0  0  0  0  0  0  0  0  0  0  0  0
   92.8923   51.4433  269.4840 C   0  0  0  0  0  0  0  0  0  0  0  0
   93.2012   52.6678  270.0771 C   0  0  0  0  0  0  0  0  0  0  0  0
   94.1512   53.5677  269.5161 C   0  0  0  0  0  0  0  0  0  0  0  0
   94.1492   54.7274  270.3470 C   0  0  0  0  0  0  0  0  0  0  0  0
   93.2774   54.4889  271.3839 C   0  0  0  0  0  0  0  0  0  0  0  0
   92.7265   53.2453  271.2434 N   0  0  0  0  0  0  0  0  0  0  0  0
   91.8100   52.6331  272.1856 C   0  0  0  0  0  0  0  0  0  0  0  0
   89.6457   47.3771  265.3001 C   0  0  0  0  0  0  0  0  0  0  0  0
   90.3572   47.0310  264.1425 C   0  0  0  0  0  0  0  0  0  0  0  0
   89.7478   46.3118  263.1147 C   0  0  0  0  0  0  0  0  0  0  0  0
   88.4149   45.9293  263.2275 C   0  0  0  0  0  0  0  0  0  0  0  0
   87.6884   46.2695  264.3653 C   0  0  0  0  0  0  0  0  0  0  0  0
   88.2903   46.9920  265.4020 C   0  0  0  0  0  0  0  0  0  0  0  0
   87.4679   47.3024  266.5683 C   0  0  0  0  0  0  0  0  0  0  0  0
   86.8158   47.5543  267.4897 N   0  0  0  0  0  0  0  0  0  0  0  0
   94.5287   45.6574  266.3474 H   0  0  0  0  0  0  0  0  0  0  0  0
   97.4767   48.1002  268.0347 H   0  0  0  0  0  0  0  0  0  0  0  0
   96.7911   45.9549  267.0866 H   0  0  0  0  0  0  0  0  0  0  0  0
   92.2840   46.4224  265.9705 H   0  0  0  0  0  0  0  0  0  0  0  0
   91.2106   50.2785  267.4537 H   0  0  0  0  0  0  0  0  0  0  0  0
   95.1059   51.6396  266.9138 H   0  0  0  0  0  0  0  0  0  0  0  0
   95.6270   53.8223  267.9521 H   0  0  0  0  0  0  0  0  0  0  0  0
   92.1412   50.7910  269.9044 H   0  0  0  0  0  0  0  0  0  0  0  0
   94.7260   55.6270  270.1906 H   0  0  0  0  0  0  0  0  0  0  0  0
   93.0611   55.1785  272.1864 H   0  0  0  0  0  0  0  0  0  0  0  0
   91.6148   53.3302  273.0138 H   0  0  0  0  0  0  0  0  0  0  0  0
   90.8646   52.3956  271.6758 H   0  0  0  0  0  0  0  0  0  0  0  0
   92.2551   51.7086  272.5820 H   0  0  0  0  0  0  0  0  0  0  0  0
   91.3917   47.3255  264.0454 H   0  0  0  0  0  0  0  0  0  0  0  0
   90.3109   46.0516  262.2306 H   0  0  0  0  0  0  0  0  0  0  0  0
   87.9443   45.3690  262.4332 H   0  0  0  0  0  0  0  0  0  0  0  0
   86.6530   45.9738  264.4486 H   0  0  0  0  0  0  0  0  0  0  0  0
  1  4  1  0  0  0  0
  1  6  1  0  0  0  0
  2  3  1  0  0  0  0
  2  5  2  0  0  0  0
  3  4  2  0  0  0  0
  5  6  1  0  0  0  0
  5 10  1  0  0  0  0
  6  7  2  0  0  0  0
  7  8  1  0  0  0  0
  8  9  1  0  0  0  0
  8 12  2  0  0  0  0
  9 10  2  0  0  0  0
 10 11  1  0  0  0  0
 11 13  2  0  0  0  0
 11 15  1  0  0  0  0
 12 22  1  0  0  0  0
 13 14  1  0  0  0  0
 14 17  2  0  0  0  0
 15 16  2  0  0  0  0
 16 17  1  0  0  0  0
 16 20  1  0  0  0  0
 17 18  1  0  0  0  0
 18 19  2  0  0  0  0
 19 20  1  0  0  0  0
 20 21  1  0  0  0  0
 22 23  2  0  0  0  0
 22 27  1  0  0  0  0
 23 24  1  0  0  0  0
 24 25  2  0  0  0  0
 25 26  1  0  0  0  0
 26 27  2  0  0  0  0
 27 28  1  0  0  0  0
 28 29  3  0  0  0  0
  1 30  1  0  0  0  0
  3 31  1  0  0  0  0
  4 32  1  0  0  0  0
  7 33  1  0  0  0  0
  9 34  1  0  0  0  0
 13 35  1  0  0  0  0
 14 36  1  0  0  0  0
 15 37  1  0  0  0  0
 18 38  1  0  0  0  0
 19 39  1  0  0  0  0
 21 40  1  0  0  0  0
 21 41  1  0  0  0  0
 21 42  1  0  0  0  0
 23 43  1  0  0  0  0
 24 44  1  0  0  0  0
 25 45  1  0  0  0  0
 26 46  1  0  0  0  0
M  END
> <ID>
24

> <IC50[uM]>
0.315

$$$$
24
  -OEChem-05192314313D
 Structure written by MMmdl.
 46 50  0     0  0  0  0  0  0999 V2000
   94.7934   46.5310  266.7559 N   0  0  0  0  0  0  0  0  0  0  0  0
   95.5582   48.9639  267.9334 N   0  0  0  0  0  0  0  0  0  0  0  0
   96.4466   47.9569  267.7437 C   0  0  0  0  0  0  0  0  0  0  0  0
   96.0618   46.7455  267.1837 C   0  0  0  0  0  0  0  0  0  0  0  0
   94.2697   48.7791  267.5052 C   0  0  0  0  0  0  0  0  0  0  0  0
   93.8901   47.5407  266.8989 C   0  0  0  0  0  0  0  0  0  0  0  0
   92.5600   47.3451  266.4593 C   0  0  0  0  0  0  0  0  0  0  0  0
   91.6063   48.3396  266.6555 C   0  0  0  0  0  0  0  0  0  0  0  0
   91.9699   49.5311  267.2767 C   0  0  0  0  0  0  0  0  0  0  0  0
   93.2841   49.7958  267.6804 C   0  0  0  0  0  0  0  0  0  0  0  0
   93.5907   51.0925  268.3264 C   0  0  0  0  0  0  0  0  0  0  0  0
   90.2614   48.1538  266.3036 N   0  0  0  0  0  0  0  0  0  0  0  0
   94.5668   51.9472  267.7977 C   0  0  0  0  0  0  0  0  0  0  0  0
   94.8663   53.1821  268.3739 C   0  0  0  0  0  0  0  0  0  0  0  0
   92.8923   51.4433  269.4840 C   0  0  0  0  0  0  0  0  0  0  0  0
   93.2012   52.6678  270.0771 C   0  0  0  0  0  0  0  0  0  0  0  0
   94.1512   53.5677  269.5161 C   0  0  0  0  0  0  0  0  0  0  0  0
   94.1492   54.7274  270.3470 C   0  0  0  0  0  0  0  0  0  0  0  0
   93.2774   54.4889  271.3839 C   0  0  0  0  0  0  0  0  0  0  0  0
   92.7265   53.2453  271.2434 N   0  0  0  0  0  0  0  0  0  0  0  0
   91.8100   52.6331  272.1856 C   0  0  0  0  0  0  0  0  0  0  0  0
   89.6457   47.3771  265.3001 C   0  0  0  0  0  0  0  0  0  0  0  0
   90.3572   47.0310  264.1425 C   0  0  0  0  0  0  0  0  0  0  0  0
   89.7478   46.3118  263.1147 C   0  0  0  0  0  0  0  0  0  0  0  0
   88.4149   45.9293  263.2275 C   0  0  0  0  0  0  0  0  0  0  0  0
   87.6884   46.2695  264.3653 C   0  0  0  0  0  0  0  0  0  0  0  0
   88.2903   46.9920  265.4020 C   0  0  0  0  0  0  0  0  0  0  0  0
   87.4679   47.3024  266.5683 C   0  0  0  0  0  0  0  0  0  0  0  0
   86.8158   47.5543  267.4897 N   0  0  0  0  0  0  0  0  0  0  0  0
   97.4767   48.1002  268.0347 H   0  0  0  0  0  0  0  0  0  0  0  0
   96.7911   45.9549  267.0866 H   0  0  0  0  0  0  0  0  0  0  0  0
   92.6080   47.1613  265.3758 H   0  0  0  0  0  0  0  0  0  0  0  0
   92.1873   46.4438  266.9679 H   0  0  0  0  0  0  0  0  0  0  0  0
   91.2106   50.2785  267.4537 H   0  0  0  0  0  0  0  0  0  0  0  0
   95.1059   51.6396  266.9138 H   0  0  0  0  0  0  0  0  0  0  0  0
   95.6270   53.8223  267.9521 H   0  0  0  0  0  0  0  0  0  0  0  0
   92.1412   50.7910  269.9044 H   0  0  0  0  0  0  0  0  0  0  0  0
   94.7260   55.6270  270.1906 H   0  0  0  0  0  0  0  0  0  0  0  0
   93.0611   55.1785  272.1864 H   0  0  0  0  0  0  0  0  0  0  0  0
   91.6148   53.3302  273.0138 H   0  0  0  0  0  0  0  0  0  0  0  0
   90.8646   52.3956  271.6758 H   0  0  0  0  0  0  0  0  0  0  0  0
   92.2551   51.7086  272.5820 H   0  0  0  0  0  0  0  0  0  0  0  0
   91.3917   47.3255  264.0454 H   0  0  0  0  0  0  0  0  0  0  0  0
   90.3109   46.0516  262.2306 H   0  0  0  0  0  0  0  0  0  0  0  0
   87.9443   45.3690  262.4332 H   0  0  0  0  0  0  0  0  0  0  0  0
   86.6530   45.9738  264.4486 H   0  0  0  0  0  0  0  0  0  0  0  0
  1  4  2  0  0  0  0
  1  6  1  0  0  0  0
  2  3  2  0  0  0  0
  2  5  1  0  0  0  0
  3  4  1  0  0  0  0
  5  6  2  0  0  0  0
  5 10  1  0  0  0  0
  6  7  1  0  0  0  0
  7  8  1  0  0  0  0
  8  9  1  0  0  0  0
  8 12  2  0  0  0  0
  9 10  2  0  0  0  0
 10 11  1  0  0  0  0
 11 13  2  0  0  0  0
 11 15  1  0  0  0  0
 12 22  1  0  0  0  0
 13 14  1  0  0  0  0
 14 17  2  0  0  0  0
 15 16  2  0  0  0  0
 16 17  1  0  0  0  0
 16 20  1  0  0  0  0
 17 18  1  0  0  0  0
 18 19  2  0  0  0  0
 19 20  1  0  0  0  0
 20 21  1  0  0  0  0
 22 23  2  0  0  0  0
 22 27  1  0  0  0  0
 23 24  1  0  0  0  0
 24 25  2  0  0  0  0
 25 26  1  0  0  0  0
 26 27  2  0  0  0  0
 27 28  1  0  0  0  0
 28 29  3  0  0  0  0
  3 30  1  0  0  0  0
  4 31  1  0  0  0  0
  7 32  1  0  0  0  0
  7 33  1  0  0  0  0
  9 34  1  0  0  0  0
 13 35  1  0  0  0  0
 14 36  1  0  0  0  0
 15 37  1  0  0  0  0
 18 38  1  0  0  0  0
 19 39  1  0  0  0  0
 21 40  1  0  0  0  0
 21 41  1  0  0  0  0
 21 42  1  0  0  0  0
 23 43  1  0  0  0  0
 24 44  1  0  0  0  0
 25 45  1  0  0  0  0
 26 46  1  0  0  0  0
M  END
> <ID>
24

> <IC50[uM]>
0.315

$$$$
24
  -OEChem-05192314313D
 Structure written by MMmdl.
 46 50  0     0  0  0  0  0  0999 V2000
   94.7934   46.5310  266.7559 N   0  0  0  0  0  0  0  0  0  0  0  0
   95.5582   48.9639  267.9334 N   0  0  0  0  0  0  0  0  0  0  0  0
   96.4466   47.9569  267.7437 C   0  0  0  0  0  0  0  0  0  0  0  0
   96.0618   46.7455  267.1837 C   0  0  0  0  0  0  0  0  0  0  0  0
   94.2697   48.7791  267.5052 C   0  0  0  0  0  0  0  0  0  0  0  0
   93.8901   47.5407  266.8989 C   0  0  0  0  0  0  0  0  0  0  0  0
   92.5600   47.3451  266.4593 C   0  0  0  0  0  0  0  0  0  0  0  0
   91.6063   48.3396  266.6555 C   0  0  0  0  0  0  0  0  0  0  0  0
   91.9699   49.5311  267.2767 C   0  0  0  0  0  0  0  0  0  0  0  0
   93.2841   49.7958  267.6804 C   0  0  0  0  0  0  0  0  0  0  0  0
   93.5907   51.0925  268.3264 C   0  0  0  0  0  0  0  0  0  0  0  0
   90.2614   48.1538  266.3036 N   0  0  0  0  0  0  0  0  0  0  0  0
   94.5668   51.9472  267.7977 C   0  0  0  0  0  0  0  0  0  0  0  0
   94.8663   53.1821  268.3739 C   0  0  0  0  0  0  0  0  0  0  0  0
   92.8923   51.4433  269.4840 C   0  0  0  0  0  0  0  0  0  0  0  0
   93.2012   52.6678  270.0771 C   0  0  0  0  0  0  0  0  0  0  0  0
   94.1512   53.5677  269.5161 C   0  0  0  0  0  0  0  0  0  0  0  0
   94.1492   54.7274  270.3470 C   0  0  0  0  0  0  0  0  0  0  0  0
   93.2774   54.4889  271.3839 C   0  0  0  0  0  0  0  0  0  0  0  0
   92.7265   53.2453  271.2434 N   0  0  0  0  0  0  0  0  0  0  0  0
   91.8100   52.6331  272.1856 C   0  0  0  0  0  0  0  0  0  0  0  0
   89.6457   47.3771  265.3001 C   0  0  0  0  0  0  0  0  0  0  0  0
   90.3572   47.0310  264.1425 C   0  0  0  0  0  0  0  0  0  0  0  0
   89.7478   46.3118  263.1147 C   0  0  0  0  0  0  0  0  0  0  0  0
   88.4149   45.9293  263.2275 C   0  0  0  0  0  0  0  0  0  0  0  0
   87.6884   46.2695  264.3653 C   0  0  0  0  0  0  0  0  0  0  0  0
   88.2903   46.9920  265.4020 C   0  0  0  0  0  0  0  0  0  0  0  0
   87.4679   47.3024  266.5683 C   0  0  0  0  0  0  0  0  0  0  0  0
   86.8158   47.5543  267.4897 N   0  0  0  0  0  0  0  0  0  0  0  0
   97.4767   48.1002  268.0347 H   0  0  0  0  0  0  0  0  0  0  0  0
   96.7911   45.9549  267.0866 H   0  0  0  0  0  0  0  0  0  0  0  0
   92.2840   46.4224  265.9705 H   0  0  0  0  0  0  0  0  0  0  0  0
   91.6962   50.3360  266.5787 H   0  0  0  0  0  0  0  0  0  0  0  0
   91.3507   49.6052  268.1828 H   0  0  0  0  0  0  0  0  0  0  0  0
   95.1059   51.6396  266.9138 H   0  0  0  0  0  0  0  0  0  0  0  0
   95.6270   53.8223  267.9521 H   0  0  0  0  0  0  0  0  0  0  0  0
   92.1412   50.7910  269.9044 H   0  0  0  0  0  0  0  0  0  0  0  0
   94.7260   55.6270  270.1906 H   0  0  0  0  0  0  0  0  0  0  0  0
   93.0611   55.1785  272.1864 H   0  0  0  0  0  0  0  0  0  0  0  0
   91.6148   53.3302  273.0138 H   0  0  0  0  0  0  0  0  0  0  0  0
   90.8646   52.3956  271.6758 H   0  0  0  0  0  0  0  0  0  0  0  0
   92.2551   51.7086  272.5820 H   0  0  0  0  0  0  0  0  0  0  0  0
   91.3917   47.3255  264.0454 H   0  0  0  0  0  0  0  0  0  0  0  0
   90.3109   46.0516  262.2306 H   0  0  0  0  0  0  0  0  0  0  0  0
   87.9443   45.3690  262.4332 H   0  0  0  0  0  0  0  0  0  0  0  0
   86.6530   45.9738  264.4486 H   0  0  0  0  0  0  0  0  0  0  0  0
  1  4  2  0  0  0  0
  1  6  1  0  0  0  0
  2  3  2  0  0  0  0
  2  5  1  0  0  0  0
  3  4  1  0  0  0  0
  5  6  1  0  0  0  0
  5 10  2  0  0  0  0
  6  7  2  0  0  0  0
  7  8  1  0  0  0  0
  8  9  1  0  0  0  0
  8 12  2  0  0  0  0
  9 10  1  0  0  0  0
 10 11  1  0  0  0  0
 11 13  2  0  0  0  0
 11 15  1  0  0  0  0
 12 22  1  0  0  0  0
 13 14  1  0  0  0  0
 14 17  2  0  0  0  0
 15 16  2  0  0  0  0
 16 17  1  0  0  0  0
 16 20  1  0  0  0  0
 17 18  1  0  0  0  0
 18 19  2  0  0  0  0
 19 20  1  0  0  0  0
 20 21  1  0  0  0  0
 22 23  2  0  0  0  0
 22 27  1  0  0  0  0
 23 24  1  0  0  0  0
 24 25  2  0  0  0  0
 25 26  1  0  0  0  0
 26 27  2  0  0  0  0
 27 28  1  0  0  0  0
 28 29  3  0  0  0  0
  3 30  1  0  0  0  0
  4 31  1  0  0  0  0
  7 32  1  0  0  0  0
  9 33  1  0  0  0  0
  9 34  1  0  0  0  0
 13 35  1  0  0  0  0
 14 36  1  0  0  0  0
 15 37  1  0  0  0  0
 18 38  1  0  0  0  0
 19 39  1  0  0  0  0
 21 40  1  0  0  0  0
 21 41  1  0  0  0  0
 21 42  1  0  0  0  0
 23 43  1  0  0  0  0
 24 44  1  0  0  0  0
 25 45  1  0  0  0  0
 26 46  1  0  0  0  0
M  END
> <ID>
24

> <IC50[uM]>
0.315

$$$$
24
  -OEChem-05192314313D
 Structure written by MMmdl.
 46 50  0     1  0  0  0  0  0999 V2000
   94.7934   46.5310  266.7559 N   0  0  0  0  0  0  0  0  0  0  0  0
   95.5582   48.9639  267.9334 N   0  0  0  0  0  0  0  0  0  0  0  0
   96.4466   47.9569  267.7437 C   0  0  0  0  0  0  0  0  0  0  0  0
   96.0618   46.7455  267.1837 C   0  0  0  0  0  0  0  0  0  0  0  0
   94.2697   48.7791  267.5052 C   0  0  0  0  0  0  0  0  0  0  0  0
   93.8901   47.5407  266.8989 C   0  0  0  0  0  0  0  0  0  0  0  0
   92.5600   47.3451  266.4593 C   0  0  0  0  0  0  0  0  0  0  0  0
   91.6063   48.3396  266.6555 C   0  0  0  0  0  0  0  0  0  0  0  0
   91.9699   49.5311  267.2767 C   0  0  0  0  0  0  0  0  0  0  0  0
   93.2841   49.7958  267.6804 C   0  0  0  0  0  0  0  0  0  0  0  0
   93.5907   51.0925  268.3264 C   0  0  0  0  0  0  0  0  0  0  0  0
   90.2614   48.1538  266.3036 N   0  0  0  0  0  0  0  0  0  0  0  0
   94.5668   51.9472  267.7977 C   0  0  0  0  0  0  0  0  0  0  0  0
   94.8663   53.1821  268.3739 C   0  0  0  0  0  0  0  0  0  0  0  0
   92.8923   51.4433  269.4840 C   0  0  0  0  0  0  0  0  0  0  0  0
   93.2012   52.6678  270.0771 C   0  0  0  0  0  0  0  0  0  0  0  0
   94.1512   53.5677  269.5161 C   0  0  0  0  0  0  0  0  0  0  0  0
   94.1492   54.7274  270.3470 C   0  0  0  0  0  0  0  0  0  0  0  0
   93.2774   54.4889  271.3839 C   0  0  0  0  0  0  0  0  0  0  0  0
   92.7265   53.2453  271.2434 N   0  0  0  0  0  0  0  0  0  0  0  0
   91.8100   52.6331  272.1856 C   0  0  0  0  0  0  0  0  0  0  0  0
   89.6457   47.3771  265.3001 C   0  0  0  0  0  0  0  0  0  0  0  0
   90.3572   47.0310  264.1425 C   0  0  0  0  0  0  0  0  0  0  0  0
   89.7478   46.3118  263.1147 C   0  0  0  0  0  0  0  0  0  0  0  0
   88.4149   45.9293  263.2275 C   0  0  0  0  0  0  0  0  0  0  0  0
   87.6884   46.2695  264.3653 C   0  0  0  0  0  0  0  0  0  0  0  0
   88.2903   46.9920  265.4020 C   0  0  3  0  0  0  0  0  0  0  0  0
   87.4679   47.3024  266.5683 C   0  0  0  0  0  0  0  0  0  0  0  0
   86.8158   47.5543  267.4897 N   0  0  0  0  0  0  0  0  0  0  0  0
   97.4767   48.1002  268.0347 H   0  0  0  0  0  0  0  0  0  0  0  0
   96.7911   45.9549  267.0866 H   0  0  0  0  0  0  0  0  0  0  0  0
   92.2840   46.4224  265.9705 H   0  0  0  0  0  0  0  0  0  0  0  0
   91.2106   50.2785  267.4537 H   0  0  0  0  0  0  0  0  0  0  0  0
   95.1059   51.6396  266.9138 H   0  0  0  0  0  0  0  0  0  0  0  0
   95.6270   53.8223  267.9521 H   0  0  0  0  0  0  0  0  0  0  0  0
   92.1412   50.7910  269.9044 H   0  0  0  0  0  0  0  0  0  0  0  0
   94.7260   55.6270  270.1906 H   0  0  0  0  0  0  0  0  0  0  0  0
   93.0611   55.1785  272.1864 H   0  0  0  0  0  0  0  0  0  0  0  0
   91.6148   53.3302  273.0138 H   0  0  0  0  0  0  0  0  0  0  0  0
   90.8646   52.3956  271.6758 H   0  0  0  0  0  0  0  0  0  0  0  0
   92.2551   51.7086  272.5820 H   0  0  0  0  0  0  0  0  0  0  0  0
   91.3917   47.3255  264.0454 H   0  0  0  0  0  0  0  0  0  0  0  0
   90.3109   46.0516  262.2306 H   0  0  0  0  0  0  0  0  0  0  0  0
   87.9443   45.3690  262.4332 H   0  0  0  0  0  0  0  0  0  0  0  0
   86.6530   45.9738  264.4486 H   0  0  0  0  0  0  0  0  0  0  0  0
   87.9822   47.9359  264.9286 H   0  0  0  0  0  0  0  0  0  0  0  0
  1  4  2  0  0  0  0
  1  6  1  0  0  0  0
  2  3  2  0  0  0  0
  2  5  1  0  0  0  0
  3  4  1  0  0  0  0
  5  6  2  0  0  0  0
  5 10  1  0  0  0  0
  6  7  1  0  0  0  0
  7  8  2  0  0  0  0
  8  9  1  0  0  0  0
  8 12  1  0  0  0  0
  9 10  2  0  0  0  0
 10 11  1  0  0  0  0
 11 13  2  0  0  0  0
 11 15  1  0  0  0  0
 12 22  2  0  0  0  0
 13 14  1  0  0  0  0
 14 17  2  0  0  0  0
 15 16  2  0  0  0  0
 16 17  1  0  0  0  0
 16 20  1  0  0  0  0
 17 18  1  0  0  0  0
 18 19  2  0  0  0  0
 19 20  1  0  0  0  0
 20 21  1  0  0  0  0
 22 23  1  0  0  0  0
 22 27  1  0  0  0  0
 23 24  2  0  0  0  0
 24 25  1  0  0  0  0
 25 26  2  0  0  0  0
 26 27  1  0  0  0  0
 27 28  1  0  0  0  0
 28 29  3  0  0  0  0
  3 30  1  0  0  0  0
  4 31  1  0  0  0  0
  7 32  1  0  0  0  0
  9 33  1  0  0  0  0
 13 34  1  0  0  0  0
 14 35  1  0  0  0  0
 15 36  1  0  0  0  0
 18 37  1  0  0  0  0
 19 38  1  0  0  0  0
 21 39  1  0  0  0  0
 21 40  1  0  0  0  0
 21 41  1  0  0  0  0
 23 42  1  0  0  0  0
 24 43  1  0  0  0  0
 25 44  1  0  0  0  0
 26 45  1  0  0  0  0
 27 46  1  0  0  0  0
M  END
> <ID>
24

> <IC50[uM]>
0.315

$$$$
24
  -OEChem-05192314313D
 Structure written by MMmdl.
 46 50  0     0  0  0  0  0  0999 V2000
   94.7934   46.5310  266.7559 N   0  0  0  0  0  0  0  0  0  0  0  0
   95.5582   48.9639  267.9334 N   0  0  0  0  0  0  0  0  0  0  0  0
   96.4466   47.9569  267.7437 C   0  0  0  0  0  0  0  0  0  0  0  0
   96.0618   46.7455  267.1837 C   0  0  0  0  0  0  0  0  0  0  0  0
   94.2697   48.7791  267.5052 C   0  0  0  0  0  0  0  0  0  0  0  0
   93.8901   47.5407  266.8989 C   0  0  0  0  0  0  0  0  0  0  0  0
   92.5600   47.3451  266.4593 C   0  0  0  0  0  0  0  0  0  0  0  0
   91.6063   48.3396  266.6555 C   0  0  0  0  0  0  0  0  0  0  0  0
   91.9699   49.5311  267.2767 C   0  0  0  0  0  0  0  0  0  0  0  0
   93.2841   49.7958  267.6804 C   0  0  0  0  0  0  0  0  0  0  0  0
   93.5907   51.0925  268.3264 C   0  0  0  0  0  0  0  0  0  0  0  0
   90.2614   48.1538  266.3036 N   0  0  0  0  0  0  0  0  0  0  0  0
   94.5668   51.9472  267.7977 C   0  0  0  0  0  0  0  0  0  0  0  0
   94.8663   53.1821  268.3739 C   0  0  0  0  0  0  0  0  0  0  0  0
   92.8923   51.4433  269.4840 C   0  0  0  0  0  0  0  0  0  0  0  0
   93.2012   52.6678  270.0771 C   0  0  0  0  0  0  0  0  0  0  0  0
   94.1512   53.5677  269.5161 C   0  0  0  0  0  0  0  0  0  0  0  0
   94.1492   54.7274  270.3470 C   0  0  0  0  0  0  0  0  0  0  0  0
   93.2774   54.4889  271.3839 C   0  0  0  0  0  0  0  0  0  0  0  0
   92.7265   53.2453  271.2434 N   0  0  0  0  0  0  0  0  0  0  0  0
   91.8100   52.6331  272.1856 C   0  0  0  0  0  0  0  0  0  0  0  0
   89.6457   47.3771  265.3001 C   0  0  0  0  0  0  0  0  0  0  0  0
   90.3572   47.0310  264.1425 C   0  0  0  0  0  0  0  0  0  0  0  0
   89.7478   46.3118  263.1147 C   0  0  0  0  0  0  0  0  0  0  0  0
   88.4149   45.9293  263.2275 C   0  0  0  0  0  0  0  0  0  0  0  0
   87.6884   46.2695  264.3653 C   0  0  0  0  0  0  0  0  0  0  0  0
   88.2903   46.9920  265.4020 C   0  0  0  0  0  0  0  0  0  0  0  0
   87.4679   47.3024  266.5683 C   0  0  0  0  0  0  0  0  0  0  0  0
   86.8158   47.5543  267.4897 N   0  0  0  0  0  0  0  0  0  0  0  0
   97.4767   48.1002  268.0347 H   0  0  0  0  0  0  0  0  0  0  0  0
   96.7911   45.9549  267.0866 H   0  0  0  0  0  0  0  0  0  0  0  0
   92.2840   46.4224  265.9705 H   0  0  0  0  0  0  0  0  0  0  0  0
   91.2106   50.2785  267.4537 H   0  0  0  0  0  0  0  0  0  0  0  0
   95.1059   51.6396  266.9138 H   0  0  0  0  0  0  0  0  0  0  0  0
   95.6270   53.8223  267.9521 H   0  0  0  0  0  0  0  0  0  0  0  0
   92.1412   50.7910  269.9044 H   0  0  0  0  0  0  0  0  0  0  0  0
   94.7260   55.6270  270.1906 H   0  0  0  0  0  0  0  0  0  0  0  0
   93.0611   55.1785  272.1864 H   0  0  0  0  0  0  0  0  0  0  0  0
   91.6148   53.3302  273.0138 H   0  0  0  0  0  0  0  0  0  0  0  0
   90.8646   52.3956  271.6758 H   0  0  0  0  0  0  0  0  0  0  0  0
   92.2551   51.7086  272.5820 H   0  0  0  0  0  0  0  0  0  0  0  0
   91.3917   47.3255  264.0454 H   0  0  0  0  0  0  0  0  0  0  0  0
   90.3109   46.0516  262.2306 H   0  0  0  0  0  0  0  0  0  0  0  0
   87.8847   46.3675  262.3691 H   0  0  0  0  0  0  0  0  0  0  0  0
   88.3916   44.8322  263.1518 H   0  0  0  0  0  0  0  0  0  0  0  0
   86.6530   45.9738  264.4486 H   0  0  0  0  0  0  0  0  0  0  0  0
  1  4  2  0  0  0  0
  1  6  1  0  0  0  0
  2  3  2  0  0  0  0
  2  5  1  0  0  0  0
  3  4  1  0  0  0  0
  5  6  2  0  0  0  0
  5 10  1  0  0  0  0
  6  7  1  0  0  0  0
  7  8  2  0  0  0  0
  8  9  1  0  0  0  0
  8 12  1  0  0  0  0
  9 10  2  0  0  0  0
 10 11  1  0  0  0  0
 11 13  2  0  0  0  0
 11 15  1  0  0  0  0
 12 22  2  0  0  0  0
 13 14  1  0  0  0  0
 14 17  2  0  0  0  0
 15 16  2  0  0  0  0
 16 17  1  0  0  0  0
 16 20  1  0  0  0  0
 17 18  1  0  0  0  0
 18 19  2  0  0  0  0
 19 20  1  0  0  0  0
 20 21  1  0  0  0  0
 22 23  1  0  0  0  0
 22 27  1  0  0  0  0
 23 24  2  0  0  0  0
 24 25  1  0  0  0  0
 25 26  1  0  0  0  0
 26 27  2  0  0  0  0
 27 28  1  0  0  0  0
 28 29  3  0  0  0  0
  3 30  1  0  0  0  0
  4 31  1  0  0  0  0
  7 32  1  0  0  0  0
  9 33  1  0  0  0  0
 13 34  1  0  0  0  0
 14 35  1  0  0  0  0
 15 36  1  0  0  0  0
 18 37  1  0  0  0  0
 19 38  1  0  0  0  0
 21 39  1  0  0  0  0
 21 40  1  0  0  0  0
 21 41  1  0  0  0  0
 23 42  1  0  0  0  0
 24 43  1  0  0  0  0
 25 44  1  0  0  0  0
 25 45  1  0  0  0  0
 26 46  1  0  0  0  0
M  END
> <ID>
24

> <IC50[uM]>
0.315

$$$$
24
  -OEChem-05192314313D
 Structure written by MMmdl.
 46 50  0     0  0  0  0  0  0999 V2000
   94.7934   46.5310  266.7559 N   0  0  0  0  0  0  0  0  0  0  0  0
   95.5582   48.9639  267.9334 N   0  0  0  0  0  0  0  0  0  0  0  0
   96.4466   47.9569  267.7437 C   0  0  0  0  0  0  0  0  0  0  0  0
   96.0618   46.7455  267.1837 C   0  0  0  0  0  0  0  0  0  0  0  0
   94.2697   48.7791  267.5052 C   0  0  0  0  0  0  0  0  0  0  0  0
   93.8901   47.5407  266.8989 C   0  0  0  0  0  0  0  0  0  0  0  0
   92.5600   47.3451  266.4593 C   0  0  0  0  0  0  0  0  0  0  0  0
   91.6063   48.3396  266.6555 C   0  0  0  0  0  0  0  0  0  0  0  0
   91.9699   49.5311  267.2767 C   0  0  0  0  0  0  0  0  0  0  0  0
   93.2841   49.7958  267.6804 C   0  0  0  0  0  0  0  0  0  0  0  0
   93.5907   51.0925  268.3264 C   0  0  0  0  0  0  0  0  0  0  0  0
   90.2614   48.1538  266.3036 N   0  0  0  0  0  0  0  0  0  0  0  0
   94.5668   51.9472  267.7977 C   0  0  0  0  0  0  0  0  0  0  0  0
   94.8663   53.1821  268.3739 C   0  0  0  0  0  0  0  0  0  0  0  0
   92.8923   51.4433  269.4840 C   0  0  0  0  0  0  0  0  0  0  0  0
   93.2012   52.6678  270.0771 C   0  0  0  0  0  0  0  0  0  0  0  0
   94.1512   53.5677  269.5161 C   0  0  0  0  0  0  0  0  0  0  0  0
   94.1492   54.7274  270.3470 C   0  0  0  0  0  0  0  0  0  0  0  0
   93.2774   54.4889  271.3839 C   0  0  0  0  0  0  0  0  0  0  0  0
   92.7265   53.2453  271.2434 N   0  0  0  0  0  0  0  0  0  0  0  0
   91.8100   52.6331  272.1856 C   0  0  0  0  0  0  0  0  0  0  0  0
   89.6457   47.3771  265.3001 C   0  0  0  0  0  0  0  0  0  0  0  0
   90.3572   47.0310  264.1425 C   0  0  0  0  0  0  0  0  0  0  0  0
   89.7478   46.3118  263.1147 C   0  0  0  0  0  0  0  0  0  0  0  0
   88.4149   45.9293  263.2275 C   0  0  0  0  0  0  0  0  0  0  0  0
   87.6884   46.2695  264.3653 C   0  0  0  0  0  0  0  0  0  0  0  0
   88.2903   46.9920  265.4020 C   0  0  0  0  0  0  0  0  0  0  0  0
   87.4679   47.3024  266.5683 C   0  0  0  0  0  0  0  0  0  0  0  0
   86.8158   47.5543  267.4897 N   0  0  0  0  0  0  0  0  0  0  0  0
   97.4767   48.1002  268.0347 H   0  0  0  0  0  0  0  0  0  0  0  0
   96.7911   45.9549  267.0866 H   0  0  0  0  0  0  0  0  0  0  0  0
   92.2840   46.4224  265.9705 H   0  0  0  0  0  0  0  0  0  0  0  0
   91.2106   50.2785  267.4537 H   0  0  0  0  0  0  0  0  0  0  0  0
   95.1059   51.6396  266.9138 H   0  0  0  0  0  0  0  0  0  0  0  0
   95.6270   53.8223  267.9521 H   0  0  0  0  0  0  0  0  0  0  0  0
   92.1412   50.7910  269.9044 H   0  0  0  0  0  0  0  0  0  0  0  0
   94.7260   55.6270  270.1906 H   0  0  0  0  0  0  0  0  0  0  0  0
   93.0611   55.1785  272.1864 H   0  0  0  0  0  0  0  0  0  0  0  0
   91.6148   53.3302  273.0138 H   0  0  0  0  0  0  0  0  0  0  0  0
   90.8646   52.3956  271.6758 H   0  0  0  0  0  0  0  0  0  0  0  0
   92.2551   51.7086  272.5820 H   0  0  0  0  0  0  0  0  0  0  0  0
   90.7102   47.9735  263.6985 H   0  0  0  0  0  0  0  0  0  0  0  0
   91.2209   46.4349  264.4723 H   0  0  0  0  0  0  0  0  0  0  0  0
   90.3109   46.0516  262.2306 H   0  0  0  0  0  0  0  0  0  0  0  0
   87.9443   45.3690  262.4332 H   0  0  0  0  0  0  0  0  0  0  0  0
   86.6530   45.9738  264.4486 H   0  0  0  0  0  0  0  0  0  0  0  0
  1  4  2  0  0  0  0
  1  6  1  0  0  0  0
  2  3  2  0  0  0  0
  2  5  1  0  0  0  0
  3  4  1  0  0  0  0
  5  6  2  0  0  0  0
  5 10  1  0  0  0  0
  6  7  1  0  0  0  0
  7  8  2  0  0  0  0
  8  9  1  0  0  0  0
  8 12  1  0  0  0  0
  9 10  2  0  0  0  0
 10 11  1  0  0  0  0
 11 13  2  0  0  0  0
 11 15  1  0  0  0  0
 12 22  2  0  0  0  0
 13 14  1  0  0  0  0
 14 17  2  0  0  0  0
 15 16  2  0  0  0  0
 16 17  1  0  0  0  0
 16 20  1  0  0  0  0
 17 18  1  0  0  0  0
 18 19  2  0  0  0  0
 19 20  1  0  0  0  0
 20 21  1  0  0  0  0
 22 23  1  0  0  0  0
 22 27  1  0  0  0  0
 23 24  1  0  0  0  0
 24 25  2  0  0  0  0
 25 26  1  0  0  0  0
 26 27  2  0  0  0  0
 27 28  1  0  0  0  0
 28 29  3  0  0  0  0
  3 30  1  0  0  0  0
  4 31  1  0  0  0  0
  7 32  1  0  0  0  0
  9 33  1  0  0  0  0
 13 34  1  0  0  0  0
 14 35  1  0  0  0  0
 15 36  1  0  0  0  0
 18 37  1  0  0  0  0
 19 38  1  0  0  0  0
 21 39  1  0  0  0  0
 21 40  1  0  0  0  0
 21 41  1  0  0  0  0
 23 42  1  0  0  0  0
 23 43  1  0  0  0  0
 24 44  1  0  0  0  0
 25 45  1  0  0  0  0
 26 46  1  0  0  0  0
M  END
> <ID>
24

> <IC50[uM]>
0.315

$$$$
24
  -OEChem-05192314313D
 Structure written by MMmdl.
 46 50  0     1  0  0  0  0  0999 V2000
   94.7934   46.5310  266.7559 N   0  0  0  0  0  0  0  0  0  0  0  0
   95.5582   48.9639  267.9334 N   0  0  0  0  0  0  0  0  0  0  0  0
   96.4466   47.9569  267.7437 C   0  0  0  0  0  0  0  0  0  0  0  0
   96.0618   46.7455  267.1837 C   0  0  0  0  0  0  0  0  0  0  0  0
   94.2697   48.7791  267.5052 C   0  0  3  0  0  0  0  0  0  0  0  0
   93.8901   47.5407  266.8989 C   0  0  0  0  0  0  0  0  0  0  0  0
   92.5600   47.3451  266.4593 C   0  0  0  0  0  0  0  0  0  0  0  0
   91.6063   48.3396  266.6555 C   0  0  0  0  0  0  0  0  0  0  0  0
   91.9699   49.5311  267.2767 C   0  0  0  0  0  0  0  0  0  0  0  0
   93.2841   49.7958  267.6804 C   0  0  0  0  0  0  0  0  0  0  0  0
   93.5907   51.0925  268.3264 C   0  0  0  0  0  0  0  0  0  0  0  0
   90.2614   48.1538  266.3036 N   0  0  0  0  0  0  0  0  0  0  0  0
   94.5668   51.9472  267.7977 C   0  0  0  0  0  0  0  0  0  0  0  0
   94.8663   53.1821  268.3739 C   0  0  0  0  0  0  0  0  0  0  0  0
   92.8923   51.4433  269.4840 C   0  0  0  0  0  0  0  0  0  0  0  0
   93.2012   52.6678  270.0771 C   0  0  0  0  0  0  0  0  0  0  0  0
   94.1512   53.5677  269.5161 C   0  0  0  0  0  0  0  0  0  0  0  0
   94.1492   54.7274  270.3470 C   0  0  0  0  0  0  0  0  0  0  0  0
   93.2774   54.4889  271.3839 C   0  0  0  0  0  0  0  0  0  0  0  0
   92.7265   53.2453  271.2434 N   0  0  0  0  0  0  0  0  0  0  0  0
   91.8100   52.6331  272.1856 C   0  0  0  0  0  0  0  0  0  0  0  0
   89.6457   47.3771  265.3001 C   0  0  0  0  0  0  0  0  0  0  0  0
   90.3572   47.0310  264.1425 C   0  0  0  0  0  0  0  0  0  0  0  0
   89.7478   46.3118  263.1147 C   0  0  0  0  0  0  0  0  0  0  0  0
   88.4149   45.9293  263.2275 C   0  0  0  0  0  0  0  0  0  0  0  0
   87.6884   46.2695  264.3653 C   0  0  0  0  0  0  0  0  0  0  0  0
   88.2903   46.9920  265.4020 C   0  0  0  0  0  0  0  0  0  0  0  0
   87.4679   47.3024  266.5683 C   0  0  0  0  0  0  0  0  0  0  0  0
   86.8158   47.5543  267.4897 N   0  0  0  0  0  0  0  0  0  0  0  0
   97.4767   48.1002  268.0347 H   0  0  0  0  0  0  0  0  0  0  0  0
   96.7911   45.9549  267.0866 H   0  0  0  0  0  0  0  0  0  0  0  0
   94.5301   49.1908  266.5190 H   0  0  0  0  0  0  0  0  0  0  0  0
   92.2840   46.4224  265.9705 H   0  0  0  0  0  0  0  0  0  0  0  0
   91.2106   50.2785  267.4537 H   0  0  0  0  0  0  0  0  0  0  0  0
   95.1059   51.6396  266.9138 H   0  0  0  0  0  0  0  0  0  0  0  0
   95.6270   53.8223  267.9521 H   0  0  0  0  0  0  0  0  0  0  0  0
   92.1412   50.7910  269.9044 H   0  0  0  0  0  0  0  0  0  0  0  0
   94.7260   55.6270  270.1906 H   0  0  0  0  0  0  0  0  0  0  0  0
   93.0611   55.1785  272.1864 H   0  0  0  0  0  0  0  0  0  0  0  0
   91.6148   53.3302  273.0138 H   0  0  0  0  0  0  0  0  0  0  0  0
   90.8646   52.3956  271.6758 H   0  0  0  0  0  0  0  0  0  0  0  0
   92.2551   51.7086  272.5820 H   0  0  0  0  0  0  0  0  0  0  0  0
   91.3917   47.3255  264.0454 H   0  0  0  0  0  0  0  0  0  0  0  0
   90.3109   46.0516  262.2306 H   0  0  0  0  0  0  0  0  0  0  0  0
   87.9443   45.3690  262.4332 H   0  0  0  0  0  0  0  0  0  0  0  0
   86.6530   45.9738  264.4486 H   0  0  0  0  0  0  0  0  0  0  0  0
  1  4  2  0  0  0  0
  1  6  1  0  0  0  0
  2  3  2  0  0  0  0
  2  5  1  0  0  0  0
  3  4  1  0  0  0  0
  5  6  1  0  0  0  0
  5 10  1  0  0  0  0
  6  7  2  0  0  0  0
  7  8  1  0  0  0  0
  8  9  1  0  0  0  0
  8 12  2  0  0  0  0
  9 10  2  0  0  0  0
 10 11  1  0  0  0  0
 11 13  2  0  0  0  0
 11 15  1  0  0  0  0
 12 22  1  0  0  0  0
 13 14  1  0  0  0  0
 14 17  2  0  0  0  0
 15 16  2  0  0  0  0
 16 17  1  0  0  0  0
 16 20  1  0  0  0  0
 17 18  1  0  0  0  0
 18 19  2  0  0  0  0
 19 20  1  0  0  0  0
 20 21  1  0  0  0  0
 22 23  2  0  0  0  0
 22 27  1  0  0  0  0
 23 24  1  0  0  0  0
 24 25  2  0  0  0  0
 25 26  1  0  0  0  0
 26 27  2  0  0  0  0
 27 28  1  0  0  0  0
 28 29  3  0  0  0  0
  3 30  1  0  0  0  0
  4 31  1  0  0  0  0
  5 32  1  0  0  0  0
  7 33  1  0  0  0  0
  9 34  1  0  0  0  0
 13 35  1  0  0  0  0
 14 36  1  0  0  0  0
 15 37  1  0  0  0  0
 18 38  1  0  0  0  0
 19 39  1  0  0  0  0
 21 40  1  0  0  0  0
 21 41  1  0  0  0  0
 21 42  1  0  0  0  0
 23 43  1  0  0  0  0
 24 44  1  0  0  0  0
 25 45  1  0  0  0  0
 26 46  1  0  0  0  0
M  END
> <ID>
24

> <IC50[uM]>
0.315

$$$$
24
  -OEChem-05192314313D
 Structure written by MMmdl.
 46 50  0     0  0  0  0  0  0999 V2000
   94.7934   46.5310  266.7559 N   0  0  0  0  0  0  0  0  0  0  0  0
   95.5582   48.9639  267.9334 N   0  0  0  0  0  0  0  0  0  0  0  0
   96.4466   47.9569  267.7437 C   0  0  0  0  0  0  0  0  0  0  0  0
   96.0618   46.7455  267.1837 C   0  0  0  0  0  0  0  0  0  0  0  0
   94.2697   48.7791  267.5052 C   0  0  0  0  0  0  0  0  0  0  0  0
   93.8901   47.5407  266.8989 C   0  0  0  0  0  0  0  0  0  0  0  0
   92.5600   47.3451  266.4593 C   0  0  0  0  0  0  0  0  0  0  0  0
   91.6063   48.3396  266.6555 C   0  0  0  0  0  0  0  0  0  0  0  0
   91.9699   49.5311  267.2767 C   0  0  0  0  0  0  0  0  0  0  0  0
   93.2841   49.7958  267.6804 C   0  0  0  0  0  0  0  0  0  0  0  0
   93.5907   51.0925  268.3264 C   0  0  0  0  0  0  0  0  0  0  0  0
   90.2614   48.1538  266.3036 N   0  0  0  0  0  0  0  0  0  0  0  0
   94.5668   51.9472  267.7977 C   0  0  0  0  0  0  0  0  0  0  0  0
   94.8663   53.1821  268.3739 C   0  0  0  0  0  0  0  0  0  0  0  0
   92.8923   51.4433  269.4840 C   0  0  0  0  0  0  0  0  0  0  0  0
   93.2012   52.6678  270.0771 C   0  0  0  0  0  0  0  0  0  0  0  0
   94.1512   53.5677  269.5161 C   0  0  0  0  0  0  0  0  0  0  0  0
   94.1492   54.7274  270.3470 C   0  0  0  0  0  0  0  0  0  0  0  0
   93.2774   54.4889  271.3839 C   0  0  0  0  0  0  0  0  0  0  0  0
   92.7265   53.2453  271.2434 N   0  0  0  0  0  0  0  0  0  0  0  0
   91.8100   52.6331  272.1856 C   0  0  0  0  0  0  0  0  0  0  0  0
   89.6457   47.3771  265.3001 C   0  0  0  0  0  0  0  0  0  0  0  0
   90.3572   47.0310  264.1425 C   0  0  0  0  0  0  0  0  0  0  0  0
   89.7478   46.3118  263.1147 C   0  0  0  0  0  0  0  0  0  0  0  0
   88.4149   45.9293  263.2275 C   0  0  0  0  0  0  0  0  0  0  0  0
   87.6884   46.2695  264.3653 C   0  0  0  0  0  0  0  0  0  0  0  0
   88.2903   46.9920  265.4020 C   0  0  0  0  0  0  0  0  0  0  0  0
   87.4679   47.3024  266.5683 C   0  0  0  0  0  0  0  0  0  0  0  0
   86.8158   47.5543  267.4897 N   0  0  0  0  0  0  0  0  0  0  0  0
   97.2392   48.3602  267.0963 H   0  0  0  0  0  0  0  0  0  0  0  0
   96.8655   47.7221  268.7334 H   0  0  0  0  0  0  0  0  0  0  0  0
   96.7911   45.9549  267.0866 H   0  0  0  0  0  0  0  0  0  0  0  0
   92.2840   46.4224  265.9705 H   0  0  0  0  0  0  0  0  0  0  0  0
   91.2106   50.2785  267.4537 H   0  0  0  0  0  0  0  0  0  0  0  0
   95.1059   51.6396  266.9138 H   0  0  0  0  0  0  0  0  0  0  0  0
   95.6270   53.8223  267.9521 H   0  0  0  0  0  0  0  0  0  0  0  0
   92.1412   50.7910  269.9044 H   0  0  0  0  0  0  0  0  0  0  0  0
   94.7260   55.6270  270.1906 H   0  0  0  0  0  0  0  0  0  0  0  0
   93.0611   55.1785  272.1864 H   0  0  0  0  0  0  0  0  0  0  0  0
   91.6148   53.3302  273.0138 H   0  0  0  0  0  0  0  0  0  0  0  0
   90.8646   52.3956  271.6758 H   0  0  0  0  0  0  0  0  0  0  0  0
   92.2551   51.7086  272.5820 H   0  0  0  0  0  0  0  0  0  0  0  0
   91.3917   47.3255  264.0454 H   0  0  0  0  0  0  0  0  0  0  0  0
   90.3109   46.0516  262.2306 H   0  0  0  0  0  0  0  0  0  0  0  0
   87.9443   45.3690  262.4332 H   0  0  0  0  0  0  0  0  0  0  0  0
   86.6530   45.9738  264.4486 H   0  0  0  0  0  0  0  0  0  0  0  0
  1  4  2  0  0  0  0
  1  6  1  0  0  0  0
  2  3  1  0  0  0  0
  2  5  2  0  0  0  0
  3  4  1  0  0  0  0
  5  6  1  0  0  0  0
  5 10  1  0  0  0  0
  6  7  2  0  0  0  0
  7  8  1  0  0  0  0
  8  9  1  0  0  0  0
  8 12  2  0  0  0  0
  9 10  2  0  0  0  0
 10 11  1  0  0  0  0
 11 13  2  0  0  0  0
 11 15  1  0  0  0  0
 12 22  1  0  0  0  0
 13 14  1  0  0  0  0
 14 17  2  0  0  0  0
 15 16  2  0  0  0  0
 16 17  1  0  0  0  0
 16 20  1  0  0  0  0
 17 18  1  0  0  0  0
 18 19  2  0  0  0  0
 19 20  1  0  0  0  0
 20 21  1  0  0  0  0
 22 23  2  0  0  0  0
 22 27  1  0  0  0  0
 23 24  1  0  0  0  0
 24 25  2  0  0  0  0
 25 26  1  0  0  0  0
 26 27  2  0  0  0  0
 27 28  1  0  0  0  0
 28 29  3  0  0  0  0
  3 30  1  0  0  0  0
  3 31  1  0  0  0  0
  4 32  1  0  0  0  0
  7 33  1  0  0  0  0
  9 34  1  0  0  0  0
 13 35  1  0  0  0  0
 14 36  1  0  0  0  0
 15 37  1  0  0  0  0
 18 38  1  0  0  0  0
 19 39  1  0  0  0  0
 21 40  1  0  0  0  0
 21 41  1  0  0  0  0
 21 42  1  0  0  0  0
 23 43  1  0  0  0  0
 24 44  1  0  0  0  0
 25 45  1  0  0  0  0
 26 46  1  0  0  0  0
M  END
> <ID>
24

> <IC50[uM]>
0.315

$$$$
