38
  -OEChem-05192314313D
 Structure written by MMmdl.
 51 54  0     0  0  0  0  0  0999 V2000
   93.2867   49.7938  267.6782 C   0  0  0  0  0  0  0  0  0  0  0  0
   92.5654   47.3311  266.4816 C   0  0  0  0  0  0  0  0  0  0  0  0
   91.6089   48.3230  266.6726 C   0  0  0  0  0  0  0  0  0  0  0  0
   91.9718   49.5238  267.2764 C   0  0  0  0  0  0  0  0  0  0  0  0
   93.8961   47.5281  266.9156 C   0  0  0  0  0  0  0  0  0  0  0  0
   94.2745   48.7732  267.5111 C   0  0  0  0  0  0  0  0  0  0  0  0
   95.5637   48.9600  267.9394 N   0  0  0  0  0  0  0  0  0  0  0  0
   96.4525   47.9510  267.7602 C   0  0  0  0  0  0  0  0  0  0  0  0
   96.0664   46.7362  267.2062 C   0  0  0  0  0  0  0  0  0  0  0  0
   94.7996   46.5168  266.7811 N   0  0  0  0  0  0  0  0  0  0  0  0
   89.7127   47.3363  265.2872 C   0  0  0  0  0  0  0  0  0  0  0  0
   90.4139   47.1275  264.0953 C   0  0  0  0  0  0  0  0  0  0  0  0
   89.9037   46.4485  263.0367 N   0  0  0  0  0  0  0  0  0  0  0  0
   88.6507   45.9427  263.1625 C   0  0  0  0  0  0  0  0  0  0  0  0
   87.8846   46.0870  264.3185 C   0  0  0  0  0  0  0  0  0  0  0  0
   88.4205   46.7962  265.3983 C   0  0  0  0  0  0  0  0  0  0  0  0
   87.4819   46.8918  266.9282 S   0  0  0  0  0  0  0  0  0  0  0  0
   86.1279   46.3929  266.6697 O   0  0  0  0  0  0  0  0  0  0  0  0
   88.3703   45.6406  268.0228 C   0  0  0  0  0  0  0  0  0  0  0  0
   87.6772   48.2349  267.4843 O   0  0  0  0  0  0  0  0  0  0  0  0
   90.2707   48.1110  266.3142 N   0  0  0  0  0  0  0  0  0  0  0  0
   93.5987   51.1027  268.3120 C   0  0  0  0  0  0  0  0  0  0  0  0
   92.9194   51.5074  269.4662 C   0  0  0  0  0  0  0  0  0  0  0  0
   93.2015   52.7233  270.1079 C   0  0  0  0  0  0  0  0  0  0  0  0
   94.1623   53.5590  269.5218 C   0  0  0  0  0  0  0  0  0  0  0  0
   94.8605   53.1670  268.3804 C   0  0  0  0  0  0  0  0  0  0  0  0
   94.5797   51.9421  267.7804 C   0  0  0  0  0  0  0  0  0  0  0  0
   92.5677   53.0728  271.3295 N   0  0  0  0  0  0  0  0  0  0  0  0
   92.8524   54.3513  271.9762 C   0  0  0  0  0  0  0  0  0  0  0  0
   91.4472   52.2880  271.8453 C   0  0  0  0  0  0  0  0  0  0  0  0
   92.2896   46.4052  265.9989 H   0  0  0  0  0  0  0  0  0  0  0  0
   91.2126   50.2741  267.4410 H   0  0  0  0  0  0  0  0  0  0  0  0
   97.4817   48.0947  268.0542 H   0  0  0  0  0  0  0  0  0  0  0  0
   96.7964   45.9459  267.1122 H   0  0  0  0  0  0  0  0  0  0  0  0
   91.4137   47.5275  264.0130 H   0  0  0  0  0  0  0  0  0  0  0  0
   88.2272   45.4032  262.3282 H   0  0  0  0  0  0  0  0  0  0  0  0
   86.8950   45.6588  264.3791 H   0  0  0  0  0  0  0  0  0  0  0  0
   87.8827   45.6033  269.0081 H   0  0  0  0  0  0  0  0  0  0  0  0
   88.3257   44.6465  267.5539 H   0  0  0  0  0  0  0  0  0  0  0  0
   89.4212   45.9416  268.1451 H   0  0  0  0  0  0  0  0  0  0  0  0
   89.6043   48.5911  266.8846 H   0  0  0  0  0  0  0  0  0  0  0  0
   92.1545   50.8644  269.8759 H   0  0  0  0  0  0  0  0  0  0  0  0
   94.3654   54.5239  269.9623 H   0  0  0  0  0  0  0  0  0  0  0  0
   95.6184   53.8127  267.9620 H   0  0  0  0  0  0  0  0  0  0  0  0
   95.1242   51.6395  266.8982 H   0  0  0  0  0  0  0  0  0  0  0  0
   92.2665   54.4321  272.9037 H   0  0  0  0  0  0  0  0  0  0  0  0
   93.9248   54.4112  272.2137 H   0  0  0  0  0  0  0  0  0  0  0  0
   92.5805   55.1736  271.2981 H   0  0  0  0  0  0  0  0  0  0  0  0
   91.1020   52.7214  272.7956 H   0  0  0  0  0  0  0  0  0  0  0  0
   90.6239   52.3012  271.1159 H   0  0  0  0  0  0  0  0  0  0  0  0
   91.7725   51.2506  272.0124 H   0  0  0  0  0  0  0  0  0  0  0  0
  1  4  2  0  0  0  0
  1  6  1  0  0  0  0
  1 22  1  0  0  0  0
  2  3  2  0  0  0  0
  2  5  1  0  0  0  0
  3  4  1  0  0  0  0
  3 21  1  0  0  0  0
  5  6  2  0  0  0  0
  5 10  1  0  0  0  0
  6  7  1  0  0  0  0
  7  8  2  0  0  0  0
  8  9  1  0  0  0  0
  9 10  2  0  0  0  0
 11 12  2  0  0  0  0
 11 16  1  0  0  0  0
 11 21  1  0  0  0  0
 12 13  1  0  0  0  0
 13 14  2  0  0  0  0
 14 15  1  0  0  0  0
 15 16  2  0  0  0  0
 16 17  1  0  0  0  0
 17 18  2  0  0  0  0
 17 19  1  0  0  0  0
 17 20  2  0  0  0  0
 22 23  2  0  0  0  0
 22 27  1  0  0  0  0
 23 24  1  0  0  0  0
 24 25  2  0  0  0  0
 24 28  1  0  0  0  0
 25 26  1  0  0  0  0
 26 27  2  0  0  0  0
 28 29  1  0  0  0  0
 28 30  1  0  0  0  0
  2 31  1  0  0  0  0
  4 32  1  0  0  0  0
  8 33  1  0  0  0  0
  9 34  1  0  0  0  0
 12 35  1  0  0  0  0
 14 36  1  0  0  0  0
 15 37  1  0  0  0  0
 19 38  1  0  0  0  0
 19 39  1  0  0  0  0
 19 40  1  0  0  0  0
 21 41  1  0  0  0  0
 23 42  1  0  0  0  0
 25 43  1  0  0  0  0
 26 44  1  0  0  0  0
 27 45  1  0  0  0  0
 29 46  1  0  0  0  0
 29 47  1  0  0  0  0
 29 48  1  0  0  0  0
 30 49  1  0  0  0  0
 30 50  1  0  0  0  0
 30 51  1  0  0  0  0
M  END
> <ID>
38

> <IC50[uM]>
0.38

$$$$
38
  -OEChem-05192314313D
 Structure written by MMmdl.
 51 54  0     0  0  0  0  0  0999 V2000
   93.2867   49.7938  267.6782 C   0  0  0  0  0  0  0  0  0  0  0  0
   92.5654   47.3311  266.4816 C   0  0  0  0  0  0  0  0  0  0  0  0
   91.6089   48.3230  266.6726 C   0  0  0  0  0  0  0  0  0  0  0  0
   91.9718   49.5238  267.2764 C   0  0  0  0  0  0  0  0  0  0  0  0
   93.8961   47.5281  266.9156 C   0  0  0  0  0  0  0  0  0  0  0  0
   94.2745   48.7732  267.5111 C   0  0  0  0  0  0  0  0  0  0  0  0
   95.5637   48.9600  267.9394 N   0  0  0  0  0  0  0  0  0  0  0  0
   96.4525   47.9510  267.7602 C   0  0  0  0  0  0  0  0  0  0  0  0
   96.0664   46.7362  267.2062 C   0  0  0  0  0  0  0  0  0  0  0  0
   94.7996   46.5168  266.7811 N   0  0  0  0  0  0  0  0  0  0  0  0
   89.7127   47.3363  265.2872 C   0  0  0  0  0  0  0  0  0  0  0  0
   90.4139   47.1275  264.0953 C   0  0  0  0  0  0  0  0  0  0  0  0
   89.9037   46.4485  263.0367 N   0  0  0  0  0  0  0  0  0  0  0  0
   88.6507   45.9427  263.1625 C   0  0  0  0  0  0  0  0  0  0  0  0
   87.8846   46.0870  264.3185 C   0  0  0  0  0  0  0  0  0  0  0  0
   88.4205   46.7962  265.3983 C   0  0  0  0  0  0  0  0  0  0  0  0
   87.4819   46.8918  266.9282 S   0  0  0  0  0  0  0  0  0  0  0  0
   86.1279   46.3929  266.6697 O   0  0  0  0  0  0  0  0  0  0  0  0
   88.3703   45.6406  268.0228 C   0  0  0  0  0  0  0  0  0  0  0  0
   87.6772   48.2349  267.4843 O   0  0  0  0  0  0  0  0  0  0  0  0
   90.2707   48.1110  266.3142 N   0  0  0  0  0  0  0  0  0  0  0  0
   93.5987   51.1027  268.3120 C   0  0  0  0  0  0  0  0  0  0  0  0
   92.9194   51.5074  269.4662 C   0  0  0  0  0  0  0  0  0  0  0  0
   93.2015   52.7233  270.1079 C   0  0  0  0  0  0  0  0  0  0  0  0
   94.1623   53.5590  269.5218 C   0  0  0  0  0  0  0  0  0  0  0  0
   94.8605   53.1670  268.3804 C   0  0  0  0  0  0  0  0  0  0  0  0
   94.5797   51.9421  267.7804 C   0  0  0  0  0  0  0  0  0  0  0  0
   92.5677   53.0728  271.3295 N   0  0  0  0  0  0  0  0  0  0  0  0
   92.8524   54.3513  271.9762 C   0  0  0  0  0  0  0  0  0  0  0  0
   91.4472   52.2880  271.8453 C   0  0  0  0  0  0  0  0  0  0  0  0
   92.2896   46.4052  265.9989 H   0  0  0  0  0  0  0  0  0  0  0  0
   91.2126   50.2741  267.4410 H   0  0  0  0  0  0  0  0  0  0  0  0
   97.4817   48.0947  268.0542 H   0  0  0  0  0  0  0  0  0  0  0  0
   96.7964   45.9459  267.1122 H   0  0  0  0  0  0  0  0  0  0  0  0
   94.5351   45.6395  266.3807 H   0  0  0  0  0  0  0  0  0  0  0  0
   91.4137   47.5275  264.0130 H   0  0  0  0  0  0  0  0  0  0  0  0
   88.2272   45.4032  262.3282 H   0  0  0  0  0  0  0  0  0  0  0  0
   86.8950   45.6588  264.3791 H   0  0  0  0  0  0  0  0  0  0  0  0
   87.8827   45.6033  269.0081 H   0  0  0  0  0  0  0  0  0  0  0  0
   88.3257   44.6465  267.5539 H   0  0  0  0  0  0  0  0  0  0  0  0
   89.4212   45.9416  268.1451 H   0  0  0  0  0  0  0  0  0  0  0  0
   92.1545   50.8644  269.8759 H   0  0  0  0  0  0  0  0  0  0  0  0
   94.3654   54.5239  269.9623 H   0  0  0  0  0  0  0  0  0  0  0  0
   95.6184   53.8127  267.9620 H   0  0  0  0  0  0  0  0  0  0  0  0
   95.1242   51.6395  266.8982 H   0  0  0  0  0  0  0  0  0  0  0  0
   92.2665   54.4321  272.9037 H   0  0  0  0  0  0  0  0  0  0  0  0
   93.9248   54.4112  272.2137 H   0  0  0  0  0  0  0  0  0  0  0  0
   92.5805   55.1736  271.2981 H   0  0  0  0  0  0  0  0  0  0  0  0
   91.1020   52.7214  272.7956 H   0  0  0  0  0  0  0  0  0  0  0  0
   90.6239   52.3012  271.1159 H   0  0  0  0  0  0  0  0  0  0  0  0
   91.7725   51.2506  272.0124 H   0  0  0  0  0  0  0  0  0  0  0  0
  1  4  2  0  0  0  0
  1  6  1  0  0  0  0
  1 22  1  0  0  0  0
  2  3  1  0  0  0  0
  2  5  2  0  0  0  0
  3  4  1  0  0  0  0
  3 21  2  3  0  0  0
  5  6  1  0  0  0  0
  5 10  1  0  0  0  0
  6  7  2  0  0  0  0
  7  8  1  0  0  0  0
  8  9  2  0  0  0  0
  9 10  1  0  0  0  0
 11 12  2  0  0  0  0
 11 16  1  0  0  0  0
 11 21  1  0  0  0  0
 12 13  1  0  0  0  0
 13 14  2  0  0  0  0
 14 15  1  0  0  0  0
 15 16  2  0  0  0  0
 16 17  1  0  0  0  0
 17 18  2  0  0  0  0
 17 19  1  0  0  0  0
 17 20  2  0  0  0  0
 22 23  2  0  0  0  0
 22 27  1  0  0  0  0
 23 24  1  0  0  0  0
 24 25  2  0  0  0  0
 24 28  1  0  0  0  0
 25 26  1  0  0  0  0
 26 27  2  0  0  0  0
 28 29  1  0  0  0  0
 28 30  1  0  0  0  0
  2 31  1  0  0  0  0
  4 32  1  0  0  0  0
  8 33  1  0  0  0  0
  9 34  1  0  0  0  0
 10 35  1  0  0  0  0
 12 36  1  0  0  0  0
 14 37  1  0  0  0  0
 15 38  1  0  0  0  0
 19 39  1  0  0  0  0
 19 40  1  0  0  0  0
 19 41  1  0  0  0  0
 23 42  1  0  0  0  0
 25 43  1  0  0  0  0
 26 44  1  0  0  0  0
 27 45  1  0  0  0  0
 29 46  1  0  0  0  0
 29 47  1  0  0  0  0
 29 48  1  0  0  0  0
 30 49  1  0  0  0  0
 30 50  1  0  0  0  0
 30 51  1  0  0  0  0
M  END
> <ID>
38

> <IC50[uM]>
0.38

$$$$
38
  -OEChem-05192314313D
 Structure written by MMmdl.
 51 54  0     0  0  0  0  0  0999 V2000
   93.2867   49.7938  267.6782 C   0  0  0  0  0  0  0  0  0  0  0  0
   92.5654   47.3311  266.4816 C   0  0  0  0  0  0  0  0  0  0  0  0
   91.6089   48.3230  266.6726 C   0  0  0  0  0  0  0  0  0  0  0  0
   91.9718   49.5238  267.2764 C   0  0  0  0  0  0  0  0  0  0  0  0
   93.8961   47.5281  266.9156 C   0  0  0  0  0  0  0  0  0  0  0  0
   94.2745   48.7732  267.5111 C   0  0  0  0  0  0  0  0  0  0  0  0
   95.5637   48.9600  267.9394 N   0  0  0  0  0  0  0  0  0  0  0  0
   96.4525   47.9510  267.7602 C   0  0  0  0  0  0  0  0  0  0  0  0
   96.0664   46.7362  267.2062 C   0  0  0  0  0  0  0  0  0  0  0  0
   94.7996   46.5168  266.7811 N   0  0  0  0  0  0  0  0  0  0  0  0
   89.7127   47.3363  265.2872 C   0  0  0  0  0  0  0  0  0  0  0  0
   90.4139   47.1275  264.0953 C   0  0  0  0  0  0  0  0  0  0  0  0
   89.9037   46.4485  263.0367 N   0  0  0  0  0  0  0  0  0  0  0  0
   88.6507   45.9427  263.1625 C   0  0  0  0  0  0  0  0  0  0  0  0
   87.8846   46.0870  264.3185 C   0  0  0  0  0  0  0  0  0  0  0  0
   88.4205   46.7962  265.3983 C   0  0  0  0  0  0  0  0  0  0  0  0
   87.4819   46.8918  266.9282 S   0  0  0  0  0  0  0  0  0  0  0  0
   86.1279   46.3929  266.6697 O   0  0  0  0  0  0  0  0  0  0  0  0
   88.3703   45.6406  268.0228 C   0  0  0  0  0  0  0  0  0  0  0  0
   87.6772   48.2349  267.4843 O   0  0  0  0  0  0  0  0  0  0  0  0
   90.2707   48.1110  266.3142 N   0  0  0  0  0  0  0  0  0  0  0  0
   93.5987   51.1027  268.3120 C   0  0  0  0  0  0  0  0  0  0  0  0
   92.9194   51.5074  269.4662 C   0  0  0  0  0  0  0  0  0  0  0  0
   93.2015   52.7233  270.1079 C   0  0  0  0  0  0  0  0  0  0  0  0
   94.1623   53.5590  269.5218 C   0  0  0  0  0  0  0  0  0  0  0  0
   94.8605   53.1670  268.3804 C   0  0  0  0  0  0  0  0  0  0  0  0
   94.5797   51.9421  267.7804 C   0  0  0  0  0  0  0  0  0  0  0  0
   92.5677   53.0728  271.3295 N   0  0  0  0  0  0  0  0  0  0  0  0
   92.8524   54.3513  271.9762 C   0  0  0  0  0  0  0  0  0  0  0  0
   91.4472   52.2880  271.8453 C   0  0  0  0  0  0  0  0  0  0  0  0
   92.1952   46.4322  266.9964 H   0  0  0  0  0  0  0  0  0  0  0  0
   92.6112   47.1410  265.3991 H   0  0  0  0  0  0  0  0  0  0  0  0
   91.2126   50.2741  267.4410 H   0  0  0  0  0  0  0  0  0  0  0  0
   97.4817   48.0947  268.0542 H   0  0  0  0  0  0  0  0  0  0  0  0
   96.7964   45.9459  267.1122 H   0  0  0  0  0  0  0  0  0  0  0  0
   91.4137   47.5275  264.0130 H   0  0  0  0  0  0  0  0  0  0  0  0
   88.2272   45.4032  262.3282 H   0  0  0  0  0  0  0  0  0  0  0  0
   86.8950   45.6588  264.3791 H   0  0  0  0  0  0  0  0  0  0  0  0
   87.8827   45.6033  269.0081 H   0  0  0  0  0  0  0  0  0  0  0  0
   88.3257   44.6465  267.5539 H   0  0  0  0  0  0  0  0  0  0  0  0
   89.4212   45.9416  268.1451 H   0  0  0  0  0  0  0  0  0  0  0  0
   92.1545   50.8644  269.8759 H   0  0  0  0  0  0  0  0  0  0  0  0
   94.3654   54.5239  269.9623 H   0  0  0  0  0  0  0  0  0  0  0  0
   95.6184   53.8127  267.9620 H   0  0  0  0  0  0  0  0  0  0  0  0
   95.1242   51.6395  266.8982 H   0  0  0  0  0  0  0  0  0  0  0  0
   92.2665   54.4321  272.9037 H   0  0  0  0  0  0  0  0  0  0  0  0
   93.9248   54.4112  272.2137 H   0  0  0  0  0  0  0  0  0  0  0  0
   92.5805   55.1736  271.2981 H   0  0  0  0  0  0  0  0  0  0  0  0
   91.1020   52.7214  272.7956 H   0  0  0  0  0  0  0  0  0  0  0  0
   90.6239   52.3012  271.1159 H   0  0  0  0  0  0  0  0  0  0  0  0
   91.7725   51.2506  272.0124 H   0  0  0  0  0  0  0  0  0  0  0  0
  1  4  2  0  0  0  0
  1  6  1  0  0  0  0
  1 22  1  0  0  0  0
  2  3  1  0  0  0  0
  2  5  1  0  0  0  0
  3  4  1  0  0  0  0
  3 21  2  3  0  0  0
  5  6  2  0  0  0  0
  5 10  1  0  0  0  0
  6  7  1  0  0  0  0
  7  8  2  0  0  0  0
  8  9  1  0  0  0  0
  9 10  2  0  0  0  0
 11 12  2  0  0  0  0
 11 16  1  0  0  0  0
 11 21  1  0  0  0  0
 12 13  1  0  0  0  0
 13 14  2  0  0  0  0
 14 15  1  0  0  0  0
 15 16  2  0  0  0  0
 16 17  1  0  0  0  0
 17 18  2  0  0  0  0
 17 19  1  0  0  0  0
 17 20  2  0  0  0  0
 22 23  2  0  0  0  0
 22 27  1  0  0  0  0
 23 24  1  0  0  0  0
 24 25  2  0  0  0  0
 24 28  1  0  0  0  0
 25 26  1  0  0  0  0
 26 27  2  0  0  0  0
 28 29  1  0  0  0  0
 28 30  1  0  0  0  0
  2 31  1  0  0  0  0
  2 32  1  0  0  0  0
  4 33  1  0  0  0  0
  8 34  1  0  0  0  0
  9 35  1  0  0  0  0
 12 36  1  0  0  0  0
 14 37  1  0  0  0  0
 15 38  1  0  0  0  0
 19 39  1  0  0  0  0
 19 40  1  0  0  0  0
 19 41  1  0  0  0  0
 23 42  1  0  0  0  0
 25 43  1  0  0  0  0
 26 44  1  0  0  0  0
 27 45  1  0  0  0  0
 29 46  1  0  0  0  0
 29 47  1  0  0  0  0
 29 48  1  0  0  0  0
 30 49  1  0  0  0  0
 30 50  1  0  0  0  0
 30 51  1  0  0  0  0
M  END
> <ID>
38

> <IC50[uM]>
0.38

$$$$
38
  -OEChem-05192314313D
 Structure written by MMmdl.
 51 54  0     0  0  0  0  0  0999 V2000
   93.2867   49.7938  267.6782 C   0  0  0  0  0  0  0  0  0  0  0  0
   92.5654   47.3311  266.4816 C   0  0  0  0  0  0  0  0  0  0  0  0
   91.6089   48.3230  266.6726 C   0  0  0  0  0  0  0  0  0  0  0  0
   91.9718   49.5238  267.2764 C   0  0  0  0  0  0  0  0  0  0  0  0
   93.8961   47.5281  266.9156 C   0  0  0  0  0  0  0  0  0  0  0  0
   94.2745   48.7732  267.5111 C   0  0  0  0  0  0  0  0  0  0  0  0
   95.5637   48.9600  267.9394 N   0  0  0  0  0  0  0  0  0  0  0  0
   96.4525   47.9510  267.7602 C   0  0  0  0  0  0  0  0  0  0  0  0
   96.0664   46.7362  267.2062 C   0  0  0  0  0  0  0  0  0  0  0  0
   94.7996   46.5168  266.7811 N   0  0  0  0  0  0  0  0  0  0  0  0
   89.7127   47.3363  265.2872 C   0  0  0  0  0  0  0  0  0  0  0  0
   90.4139   47.1275  264.0953 C   0  0  0  0  0  0  0  0  0  0  0  0
   89.9037   46.4485  263.0367 N   0  0  0  0  0  0  0  0  0  0  0  0
   88.6507   45.9427  263.1625 C   0  0  0  0  0  0  0  0  0  0  0  0
   87.8846   46.0870  264.3185 C   0  0  0  0  0  0  0  0  0  0  0  0
   88.4205   46.7962  265.3983 C   0  0  0  0  0  0  0  0  0  0  0  0
   87.4819   46.8918  266.9282 S   0  0  0  0  0  0  0  0  0  0  0  0
   86.1279   46.3929  266.6697 O   0  0  0  0  0  0  0  0  0  0  0  0
   88.3703   45.6406  268.0228 C   0  0  0  0  0  0  0  0  0  0  0  0
   87.6772   48.2349  267.4843 O   0  0  0  0  0  0  0  0  0  0  0  0
   90.2707   48.1110  266.3142 N   0  0  0  0  0  0  0  0  0  0  0  0
   93.5987   51.1027  268.3120 C   0  0  0  0  0  0  0  0  0  0  0  0
   92.9194   51.5074  269.4662 C   0  0  0  0  0  0  0  0  0  0  0  0
   93.2015   52.7233  270.1079 C   0  0  0  0  0  0  0  0  0  0  0  0
   94.1623   53.5590  269.5218 C   0  0  0  0  0  0  0  0  0  0  0  0
   94.8605   53.1670  268.3804 C   0  0  0  0  0  0  0  0  0  0  0  0
   94.5797   51.9421  267.7804 C   0  0  0  0  0  0  0  0  0  0  0  0
   92.5677   53.0728  271.3295 N   0  0  0  0  0  0  0  0  0  0  0  0
   92.8524   54.3513  271.9762 C   0  0  0  0  0  0  0  0  0  0  0  0
   91.4472   52.2880  271.8453 C   0  0  0  0  0  0  0  0  0  0  0  0
   92.2896   46.4052  265.9989 H   0  0  0  0  0  0  0  0  0  0  0  0
   91.3513   49.6118  268.1804 H   0  0  0  0  0  0  0  0  0  0  0  0
   91.6995   50.3183  266.5660 H   0  0  0  0  0  0  0  0  0  0  0  0
   97.4817   48.0947  268.0542 H   0  0  0  0  0  0  0  0  0  0  0  0
   96.7964   45.9459  267.1122 H   0  0  0  0  0  0  0  0  0  0  0  0
   91.4137   47.5275  264.0130 H   0  0  0  0  0  0  0  0  0  0  0  0
   88.2272   45.4032  262.3282 H   0  0  0  0  0  0  0  0  0  0  0  0
   86.8950   45.6588  264.3791 H   0  0  0  0  0  0  0  0  0  0  0  0
   87.8827   45.6033  269.0081 H   0  0  0  0  0  0  0  0  0  0  0  0
   88.3257   44.6465  267.5539 H   0  0  0  0  0  0  0  0  0  0  0  0
   89.4212   45.9416  268.1451 H   0  0  0  0  0  0  0  0  0  0  0  0
   92.1545   50.8644  269.8759 H   0  0  0  0  0  0  0  0  0  0  0  0
   94.3654   54.5239  269.9623 H   0  0  0  0  0  0  0  0  0  0  0  0
   95.6184   53.8127  267.9620 H   0  0  0  0  0  0  0  0  0  0  0  0
   95.1242   51.6395  266.8982 H   0  0  0  0  0  0  0  0  0  0  0  0
   92.2665   54.4321  272.9037 H   0  0  0  0  0  0  0  0  0  0  0  0
   93.9248   54.4112  272.2137 H   0  0  0  0  0  0  0  0  0  0  0  0
   92.5805   55.1736  271.2981 H   0  0  0  0  0  0  0  0  0  0  0  0
   91.1020   52.7214  272.7956 H   0  0  0  0  0  0  0  0  0  0  0  0
   90.6239   52.3012  271.1159 H   0  0  0  0  0  0  0  0  0  0  0  0
   91.7725   51.2506  272.0124 H   0  0  0  0  0  0  0  0  0  0  0  0
  1  4  1  0  0  0  0
  1  6  2  0  0  0  0
  1 22  1  0  0  0  0
  2  3  1  0  0  0  0
  2  5  2  0  0  0  0
  3  4  1  0  0  0  0
  3 21  2  3  0  0  0
  5  6  1  0  0  0  0
  5 10  1  0  0  0  0
  6  7  1  0  0  0  0
  7  8  2  0  0  0  0
  8  9  1  0  0  0  0
  9 10  2  0  0  0  0
 11 12  2  0  0  0  0
 11 16  1  0  0  0  0
 11 21  1  0  0  0  0
 12 13  1  0  0  0  0
 13 14  2  0  0  0  0
 14 15  1  0  0  0  0
 15 16  2  0  0  0  0
 16 17  1  0  0  0  0
 17 18  2  0  0  0  0
 17 19  1  0  0  0  0
 17 20  2  0  0  0  0
 22 23  2  0  0  0  0
 22 27  1  0  0  0  0
 23 24  1  0  0  0  0
 24 25  2  0  0  0  0
 24 28  1  0  0  0  0
 25 26  1  0  0  0  0
 26 27  2  0  0  0  0
 28 29  1  0  0  0  0
 28 30  1  0  0  0  0
  2 31  1  0  0  0  0
  4 32  1  0  0  0  0
  4 33  1  0  0  0  0
  8 34  1  0  0  0  0
  9 35  1  0  0  0  0
 12 36  1  0  0  0  0
 14 37  1  0  0  0  0
 15 38  1  0  0  0  0
 19 39  1  0  0  0  0
 19 40  1  0  0  0  0
 19 41  1  0  0  0  0
 23 42  1  0  0  0  0
 25 43  1  0  0  0  0
 26 44  1  0  0  0  0
 27 45  1  0  0  0  0
 29 46  1  0  0  0  0
 29 47  1  0  0  0  0
 29 48  1  0  0  0  0
 30 49  1  0  0  0  0
 30 50  1  0  0  0  0
 30 51  1  0  0  0  0
M  END
> <ID>
38

> <IC50[uM]>
0.38

$$$$
38
  -OEChem-05192314313D
 Structure written by MMmdl.
 51 54  0     1  0  0  0  0  0999 V2000
   93.2867   49.7938  267.6782 C   0  0  0  0  0  0  0  0  0  0  0  0
   92.5654   47.3311  266.4816 C   0  0  0  0  0  0  0  0  0  0  0  0
   91.6089   48.3230  266.6726 C   0  0  0  0  0  0  0  0  0  0  0  0
   91.9718   49.5238  267.2764 C   0  0  0  0  0  0  0  0  0  0  0  0
   93.8961   47.5281  266.9156 C   0  0  0  0  0  0  0  0  0  0  0  0
   94.2745   48.7732  267.5111 C   0  0  0  0  0  0  0  0  0  0  0  0
   95.5637   48.9600  267.9394 N   0  0  0  0  0  0  0  0  0  0  0  0
   96.4525   47.9510  267.7602 C   0  0  0  0  0  0  0  0  0  0  0  0
   96.0664   46.7362  267.2062 C   0  0  0  0  0  0  0  0  0  0  0  0
   94.7996   46.5168  266.7811 N   0  0  0  0  0  0  0  0  0  0  0  0
   89.7127   47.3363  265.2872 C   0  0  0  0  0  0  0  0  0  0  0  0
   90.4139   47.1275  264.0953 C   0  0  0  0  0  0  0  0  0  0  0  0
   89.9037   46.4485  263.0367 N   0  0  0  0  0  0  0  0  0  0  0  0
   88.6507   45.9427  263.1625 C   0  0  0  0  0  0  0  0  0  0  0  0
   87.8846   46.0870  264.3185 C   0  0  0  0  0  0  0  0  0  0  0  0
   88.4205   46.7962  265.3983 C   0  0  3  0  0  0  0  0  0  0  0  0
   87.4819   46.8918  266.9282 S   0  0  0  0  0  0  0  0  0  0  0  0
   86.1279   46.3929  266.6697 O   0  0  0  0  0  0  0  0  0  0  0  0
   88.3703   45.6406  268.0228 C   0  0  0  0  0  0  0  0  0  0  0  0
   87.6772   48.2349  267.4843 O   0  0  0  0  0  0  0  0  0  0  0  0
   90.2707   48.1110  266.3142 N   0  0  0  0  0  0  0  0  0  0  0  0
   93.5987   51.1027  268.3120 C   0  0  0  0  0  0  0  0  0  0  0  0
   92.9194   51.5074  269.4662 C   0  0  0  0  0  0  0  0  0  0  0  0
   93.2015   52.7233  270.1079 C   0  0  0  0  0  0  0  0  0  0  0  0
   94.1623   53.5590  269.5218 C   0  0  0  0  0  0  0  0  0  0  0  0
   94.8605   53.1670  268.3804 C   0  0  0  0  0  0  0  0  0  0  0  0
   94.5797   51.9421  267.7804 C   0  0  0  0  0  0  0  0  0  0  0  0
   92.5677   53.0728  271.3295 N   0  0  0  0  0  0  0  0  0  0  0  0
   92.8524   54.3513  271.9762 C   0  0  0  0  0  0  0  0  0  0  0  0
   91.4472   52.2880  271.8453 C   0  0  0  0  0  0  0  0  0  0  0  0
   92.2896   46.4052  265.9989 H   0  0  0  0  0  0  0  0  0  0  0  0
   91.2126   50.2741  267.4410 H   0  0  0  0  0  0  0  0  0  0  0  0
   97.4817   48.0947  268.0542 H   0  0  0  0  0  0  0  0  0  0  0  0
   96.7964   45.9459  267.1122 H   0  0  0  0  0  0  0  0  0  0  0  0
   91.4137   47.5275  264.0130 H   0  0  0  0  0  0  0  0  0  0  0  0
   88.2272   45.4032  262.3282 H   0  0  0  0  0  0  0  0  0  0  0  0
   86.8950   45.6588  264.3791 H   0  0  0  0  0  0  0  0  0  0  0  0
   87.9700   47.7335  265.0397 H   0  0  0  0  0  0  0  0  0  0  0  0
   87.8827   45.6033  269.0081 H   0  0  0  0  0  0  0  0  0  0  0  0
   88.3257   44.6465  267.5539 H   0  0  0  0  0  0  0  0  0  0  0  0
   89.4212   45.9416  268.1451 H   0  0  0  0  0  0  0  0  0  0  0  0
   92.1545   50.8644  269.8759 H   0  0  0  0  0  0  0  0  0  0  0  0
   94.3654   54.5239  269.9623 H   0  0  0  0  0  0  0  0  0  0  0  0
   95.6184   53.8127  267.9620 H   0  0  0  0  0  0  0  0  0  0  0  0
   95.1242   51.6395  266.8982 H   0  0  0  0  0  0  0  0  0  0  0  0
   92.2665   54.4321  272.9037 H   0  0  0  0  0  0  0  0  0  0  0  0
   93.9248   54.4112  272.2137 H   0  0  0  0  0  0  0  0  0  0  0  0
   92.5805   55.1736  271.2981 H   0  0  0  0  0  0  0  0  0  0  0  0
   91.1020   52.7214  272.7956 H   0  0  0  0  0  0  0  0  0  0  0  0
   90.6239   52.3012  271.1159 H   0  0  0  0  0  0  0  0  0  0  0  0
   91.7725   51.2506  272.0124 H   0  0  0  0  0  0  0  0  0  0  0  0
  1  4  2  0  0  0  0
  1  6  1  0  0  0  0
  1 22  1  0  0  0  0
  2  3  2  0  0  0  0
  2  5  1  0  0  0  0
  3  4  1  0  0  0  0
  3 21  1  0  0  0  0
  5  6  2  0  0  0  0
  5 10  1  0  0  0  0
  6  7  1  0  0  0  0
  7  8  2  0  0  0  0
  8  9  1  0  0  0  0
  9 10  2  0  0  0  0
 11 12  1  0  0  0  0
 11 16  1  0  0  0  0
 11 21  2  0  0  0  0
 12 13  2  0  0  0  0
 13 14  1  0  0  0  0
 14 15  2  0  0  0  0
 15 16  1  0  0  0  0
 16 17  1  0  0  0  0
 17 18  2  0  0  0  0
 17 19  1  0  0  0  0
 17 20  2  0  0  0  0
 22 23  2  0  0  0  0
 22 27  1  0  0  0  0
 23 24  1  0  0  0  0
 24 25  2  0  0  0  0
 24 28  1  0  0  0  0
 25 26  1  0  0  0  0
 26 27  2  0  0  0  0
 28 29  1  0  0  0  0
 28 30  1  0  0  0  0
  2 31  1  0  0  0  0
  4 32  1  0  0  0  0
  8 33  1  0  0  0  0
  9 34  1  0  0  0  0
 12 35  1  0  0  0  0
 14 36  1  0  0  0  0
 15 37  1  0  0  0  0
 16 38  1  0  0  0  0
 19 39  1  0  0  0  0
 19 40  1  0  0  0  0
 19 41  1  0  0  0  0
 23 42  1  0  0  0  0
 25 43  1  0  0  0  0
 26 44  1  0  0  0  0
 27 45  1  0  0  0  0
 29 46  1  0  0  0  0
 29 47  1  0  0  0  0
 29 48  1  0  0  0  0
 30 49  1  0  0  0  0
 30 50  1  0  0  0  0
 30 51  1  0  0  0  0
M  END
> <ID>
38

> <IC50[uM]>
0.38

$$$$
38
  -OEChem-05192314313D
 Structure written by MMmdl.
 51 54  0     0  0  0  0  0  0999 V2000
   93.2867   49.7938  267.6782 C   0  0  0  0  0  0  0  0  0  0  0  0
   92.5654   47.3311  266.4816 C   0  0  0  0  0  0  0  0  0  0  0  0
   91.6089   48.3230  266.6726 C   0  0  0  0  0  0  0  0  0  0  0  0
   91.9718   49.5238  267.2764 C   0  0  0  0  0  0  0  0  0  0  0  0
   93.8961   47.5281  266.9156 C   0  0  0  0  0  0  0  0  0  0  0  0
   94.2745   48.7732  267.5111 C   0  0  0  0  0  0  0  0  0  0  0  0
   95.5637   48.9600  267.9394 N   0  0  0  0  0  0  0  0  0  0  0  0
   96.4525   47.9510  267.7602 C   0  0  0  0  0  0  0  0  0  0  0  0
   96.0664   46.7362  267.2062 C   0  0  0  0  0  0  0  0  0  0  0  0
   94.7996   46.5168  266.7811 N   0  0  0  0  0  0  0  0  0  0  0  0
   89.7127   47.3363  265.2872 C   0  0  0  0  0  0  0  0  0  0  0  0
   90.4139   47.1275  264.0953 C   0  0  0  0  0  0  0  0  0  0  0  0
   89.9037   46.4485  263.0367 N   0  0  0  0  0  0  0  0  0  0  0  0
   88.6507   45.9427  263.1625 C   0  0  0  0  0  0  0  0  0  0  0  0
   87.8846   46.0870  264.3185 C   0  0  0  0  0  0  0  0  0  0  0  0
   88.4205   46.7962  265.3983 C   0  0  0  0  0  0  0  0  0  0  0  0
   87.4819   46.8918  266.9282 S   0  0  0  0  0  0  0  0  0  0  0  0
   86.1279   46.3929  266.6697 O   0  0  0  0  0  0  0  0  0  0  0  0
   88.3703   45.6406  268.0228 C   0  0  0  0  0  0  0  0  0  0  0  0
   87.6772   48.2349  267.4843 O   0  0  0  0  0  0  0  0  0  0  0  0
   90.2707   48.1110  266.3142 N   0  0  0  0  0  0  0  0  0  0  0  0
   93.5987   51.1027  268.3120 C   0  0  0  0  0  0  0  0  0  0  0  0
   92.9194   51.5074  269.4662 C   0  0  0  0  0  0  0  0  0  0  0  0
   93.2015   52.7233  270.1079 C   0  0  0  0  0  0  0  0  0  0  0  0
   94.1623   53.5590  269.5218 C   0  0  0  0  0  0  0  0  0  0  0  0
   94.8605   53.1670  268.3804 C   0  0  0  0  0  0  0  0  0  0  0  0
   94.5797   51.9421  267.7804 C   0  0  0  0  0  0  0  0  0  0  0  0
   92.5677   53.0728  271.3295 N   0  0  0  0  0  0  0  0  0  0  0  0
   92.8524   54.3513  271.9762 C   0  0  0  0  0  0  0  0  0  0  0  0
   91.4472   52.2880  271.8453 C   0  0  0  0  0  0  0  0  0  0  0  0
   92.2896   46.4052  265.9989 H   0  0  0  0  0  0  0  0  0  0  0  0
   91.2126   50.2741  267.4410 H   0  0  0  0  0  0  0  0  0  0  0  0
   97.4817   48.0947  268.0542 H   0  0  0  0  0  0  0  0  0  0  0  0
   96.7964   45.9459  267.1122 H   0  0  0  0  0  0  0  0  0  0  0  0
   91.4137   47.5275  264.0130 H   0  0  0  0  0  0  0  0  0  0  0  0
   88.0602   46.3913  262.3500 H   0  0  0  0  0  0  0  0  0  0  0  0
   88.7431   44.8596  262.9938 H   0  0  0  0  0  0  0  0  0  0  0  0
   86.8950   45.6588  264.3791 H   0  0  0  0  0  0  0  0  0  0  0  0
   87.8827   45.6033  269.0081 H   0  0  0  0  0  0  0  0  0  0  0  0
   88.3257   44.6465  267.5539 H   0  0  0  0  0  0  0  0  0  0  0  0
   89.4212   45.9416  268.1451 H   0  0  0  0  0  0  0  0  0  0  0  0
   92.1545   50.8644  269.8759 H   0  0  0  0  0  0  0  0  0  0  0  0
   94.3654   54.5239  269.9623 H   0  0  0  0  0  0  0  0  0  0  0  0
   95.6184   53.8127  267.9620 H   0  0  0  0  0  0  0  0  0  0  0  0
   95.1242   51.6395  266.8982 H   0  0  0  0  0  0  0  0  0  0  0  0
   92.2665   54.4321  272.9037 H   0  0  0  0  0  0  0  0  0  0  0  0
   93.9248   54.4112  272.2137 H   0  0  0  0  0  0  0  0  0  0  0  0
   92.5805   55.1736  271.2981 H   0  0  0  0  0  0  0  0  0  0  0  0
   91.1020   52.7214  272.7956 H   0  0  0  0  0  0  0  0  0  0  0  0
   90.6239   52.3012  271.1159 H   0  0  0  0  0  0  0  0  0  0  0  0
   91.7725   51.2506  272.0124 H   0  0  0  0  0  0  0  0  0  0  0  0
  1  4  2  0  0  0  0
  1  6  1  0  0  0  0
  1 22  1  0  0  0  0
  2  3  2  0  0  0  0
  2  5  1  0  0  0  0
  3  4  1  0  0  0  0
  3 21  1  0  0  0  0
  5  6  2  0  0  0  0
  5 10  1  0  0  0  0
  6  7  1  0  0  0  0
  7  8  2  0  0  0  0
  8  9  1  0  0  0  0
  9 10  2  0  0  0  0
 11 12  1  0  0  0  0
 11 16  1  0  0  0  0
 11 21  2  0  0  0  0
 12 13  2  0  0  0  0
 13 14  1  0  0  0  0
 14 15  1  0  0  0  0
 15 16  2  0  0  0  0
 16 17  1  0  0  0  0
 17 18  2  0  0  0  0
 17 19  1  0  0  0  0
 17 20  2  0  0  0  0
 22 23  2  0  0  0  0
 22 27  1  0  0  0  0
 23 24  1  0  0  0  0
 24 25  2  0  0  0  0
 24 28  1  0  0  0  0
 25 26  1  0  0  0  0
 26 27  2  0  0  0  0
 28 29  1  0  0  0  0
 28 30  1  0  0  0  0
  2 31  1  0  0  0  0
  4 32  1  0  0  0  0
  8 33  1  0  0  0  0
  9 34  1  0  0  0  0
 12 35  1  0  0  0  0
 14 36  1  0  0  0  0
 14 37  1  0  0  0  0
 15 38  1  0  0  0  0
 19 39  1  0  0  0  0
 19 40  1  0  0  0  0
 19 41  1  0  0  0  0
 23 42  1  0  0  0  0
 25 43  1  0  0  0  0
 26 44  1  0  0  0  0
 27 45  1  0  0  0  0
 29 46  1  0  0  0  0
 29 47  1  0  0  0  0
 29 48  1  0  0  0  0
 30 49  1  0  0  0  0
 30 50  1  0  0  0  0
 30 51  1  0  0  0  0
M  END
> <ID>
38

> <IC50[uM]>
0.38

$$$$
38
  -OEChem-05192314313D
 Structure written by MMmdl.
 51 54  0     0  0  0  0  0  0999 V2000
   93.2867   49.7938  267.6782 C   0  0  0  0  0  0  0  0  0  0  0  0
   92.5654   47.3311  266.4816 C   0  0  0  0  0  0  0  0  0  0  0  0
   91.6089   48.3230  266.6726 C   0  0  0  0  0  0  0  0  0  0  0  0
   91.9718   49.5238  267.2764 C   0  0  0  0  0  0  0  0  0  0  0  0
   93.8961   47.5281  266.9156 C   0  0  0  0  0  0  0  0  0  0  0  0
   94.2745   48.7732  267.5111 C   0  0  0  0  0  0  0  0  0  0  0  0
   95.5637   48.9600  267.9394 N   0  0  0  0  0  0  0  0  0  0  0  0
   96.4525   47.9510  267.7602 C   0  0  0  0  0  0  0  0  0  0  0  0
   96.0664   46.7362  267.2062 C   0  0  0  0  0  0  0  0  0  0  0  0
   94.7996   46.5168  266.7811 N   0  0  0  0  0  0  0  0  0  0  0  0
   89.7127   47.3363  265.2872 C   0  0  0  0  0  0  0  0  0  0  0  0
   90.4139   47.1275  264.0953 C   0  0  0  0  0  0  0  0  0  0  0  0
   89.9037   46.4485  263.0367 N   0  0  0  0  0  0  0  0  0  0  0  0
   88.6507   45.9427  263.1625 C   0  0  0  0  0  0  0  0  0  0  0  0
   87.8846   46.0870  264.3185 C   0  0  0  0  0  0  0  0  0  0  0  0
   88.4205   46.7962  265.3983 C   0  0  0  0  0  0  0  0  0  0  0  0
   87.4819   46.8918  266.9282 S   0  0  0  0  0  0  0  0  0  0  0  0
   86.1279   46.3929  266.6697 O   0  0  0  0  0  0  0  0  0  0  0  0
   88.3703   45.6406  268.0228 C   0  0  0  0  0  0  0  0  0  0  0  0
   87.6772   48.2349  267.4843 O   0  0  0  0  0  0  0  0  0  0  0  0
   90.2707   48.1110  266.3142 N   0  0  0  0  0  0  0  0  0  0  0  0
   93.5987   51.1027  268.3120 C   0  0  0  0  0  0  0  0  0  0  0  0
   92.9194   51.5074  269.4662 C   0  0  0  0  0  0  0  0  0  0  0  0
   93.2015   52.7233  270.1079 C   0  0  0  0  0  0  0  0  0  0  0  0
   94.1623   53.5590  269.5218 C   0  0  0  0  0  0  0  0  0  0  0  0
   94.8605   53.1670  268.3804 C   0  0  0  0  0  0  0  0  0  0  0  0
   94.5797   51.9421  267.7804 C   0  0  0  0  0  0  0  0  0  0  0  0
   92.5677   53.0728  271.3295 N   0  0  0  0  0  0  0  0  0  0  0  0
   92.8524   54.3513  271.9762 C   0  0  0  0  0  0  0  0  0  0  0  0
   91.4472   52.2880  271.8453 C   0  0  0  0  0  0  0  0  0  0  0  0
   92.2896   46.4052  265.9989 H   0  0  0  0  0  0  0  0  0  0  0  0
   91.2126   50.2741  267.4410 H   0  0  0  0  0  0  0  0  0  0  0  0
   97.4817   48.0947  268.0542 H   0  0  0  0  0  0  0  0  0  0  0  0
   96.7964   45.9459  267.1122 H   0  0  0  0  0  0  0  0  0  0  0  0
   90.6683   48.1284  263.7165 H   0  0  0  0  0  0  0  0  0  0  0  0
   91.3354   46.5970  264.3773 H   0  0  0  0  0  0  0  0  0  0  0  0
   88.2272   45.4032  262.3282 H   0  0  0  0  0  0  0  0  0  0  0  0
   86.8950   45.6588  264.3791 H   0  0  0  0  0  0  0  0  0  0  0  0
   87.8827   45.6033  269.0081 H   0  0  0  0  0  0  0  0  0  0  0  0
   88.3257   44.6465  267.5539 H   0  0  0  0  0  0  0  0  0  0  0  0
   89.4212   45.9416  268.1451 H   0  0  0  0  0  0  0  0  0  0  0  0
   92.1545   50.8644  269.8759 H   0  0  0  0  0  0  0  0  0  0  0  0
   94.3654   54.5239  269.9623 H   0  0  0  0  0  0  0  0  0  0  0  0
   95.6184   53.8127  267.9620 H   0  0  0  0  0  0  0  0  0  0  0  0
   95.1242   51.6395  266.8982 H   0  0  0  0  0  0  0  0  0  0  0  0
   92.2665   54.4321  272.9037 H   0  0  0  0  0  0  0  0  0  0  0  0
   93.9248   54.4112  272.2137 H   0  0  0  0  0  0  0  0  0  0  0  0
   92.5805   55.1736  271.2981 H   0  0  0  0  0  0  0  0  0  0  0  0
   91.1020   52.7214  272.7956 H   0  0  0  0  0  0  0  0  0  0  0  0
   90.6239   52.3012  271.1159 H   0  0  0  0  0  0  0  0  0  0  0  0
   91.7725   51.2506  272.0124 H   0  0  0  0  0  0  0  0  0  0  0  0
  1  4  2  0  0  0  0
  1  6  1  0  0  0  0
  1 22  1  0  0  0  0
  2  3  2  0  0  0  0
  2  5  1  0  0  0  0
  3  4  1  0  0  0  0
  3 21  1  0  0  0  0
  5  6  2  0  0  0  0
  5 10  1  0  0  0  0
  6  7  1  0  0  0  0
  7  8  2  0  0  0  0
  8  9  1  0  0  0  0
  9 10  2  0  0  0  0
 11 12  1  0  0  0  0
 11 16  1  0  0  0  0
 11 21  2  0  0  0  0
 12 13  1  0  0  0  0
 13 14  2  0  0  0  0
 14 15  1  0  0  0  0
 15 16  2  0  0  0  0
 16 17  1  0  0  0  0
 17 18  2  0  0  0  0
 17 19  1  0  0  0  0
 17 20  2  0  0  0  0
 22 23  2  0  0  0  0
 22 27  1  0  0  0  0
 23 24  1  0  0  0  0
 24 25  2  0  0  0  0
 24 28  1  0  0  0  0
 25 26  1  0  0  0  0
 26 27  2  0  0  0  0
 28 29  1  0  0  0  0
 28 30  1  0  0  0  0
  2 31  1  0  0  0  0
  4 32  1  0  0  0  0
  8 33  1  0  0  0  0
  9 34  1  0  0  0  0
 12 35  1  0  0  0  0
 12 36  1  0  0  0  0
 14 37  1  0  0  0  0
 15 38  1  0  0  0  0
 19 39  1  0  0  0  0
 19 40  1  0  0  0  0
 19 41  1  0  0  0  0
 23 42  1  0  0  0  0
 25 43  1  0  0  0  0
 26 44  1  0  0  0  0
 27 45  1  0  0  0  0
 29 46  1  0  0  0  0
 29 47  1  0  0  0  0
 29 48  1  0  0  0  0
 30 49  1  0  0  0  0
 30 50  1  0  0  0  0
 30 51  1  0  0  0  0
M  END
> <ID>
38

> <IC50[uM]>
0.38

$$$$
38
  -OEChem-05192314313D
 Structure written by MMmdl.
 51 54  0     1  0  0  0  0  0999 V2000
   93.2867   49.7938  267.6782 C   0  0  0  0  0  0  0  0  0  0  0  0
   92.5654   47.3311  266.4816 C   0  0  0  0  0  0  0  0  0  0  0  0
   91.6089   48.3230  266.6726 C   0  0  0  0  0  0  0  0  0  0  0  0
   91.9718   49.5238  267.2764 C   0  0  0  0  0  0  0  0  0  0  0  0
   93.8961   47.5281  266.9156 C   0  0  0  0  0  0  0  0  0  0  0  0
   94.2745   48.7732  267.5111 C   0  0  3  0  0  0  0  0  0  0  0  0
   95.5637   48.9600  267.9394 N   0  0  0  0  0  0  0  0  0  0  0  0
   96.4525   47.9510  267.7602 C   0  0  0  0  0  0  0  0  0  0  0  0
   96.0664   46.7362  267.2062 C   0  0  0  0  0  0  0  0  0  0  0  0
   94.7996   46.5168  266.7811 N   0  0  0  0  0  0  0  0  0  0  0  0
   89.7127   47.3363  265.2872 C   0  0  0  0  0  0  0  0  0  0  0  0
   90.4139   47.1275  264.0953 C   0  0  0  0  0  0  0  0  0  0  0  0
   89.9037   46.4485  263.0367 N   0  0  0  0  0  0  0  0  0  0  0  0
   88.6507   45.9427  263.1625 C   0  0  0  0  0  0  0  0  0  0  0  0
   87.8846   46.0870  264.3185 C   0  0  0  0  0  0  0  0  0  0  0  0
   88.4205   46.7962  265.3983 C   0  0  0  0  0  0  0  0  0  0  0  0
   87.4819   46.8918  266.9282 S   0  0  0  0  0  0  0  0  0  0  0  0
   86.1279   46.3929  266.6697 O   0  0  0  0  0  0  0  0  0  0  0  0
   88.3703   45.6406  268.0228 C   0  0  0  0  0  0  0  0  0  0  0  0
   87.6772   48.2349  267.4843 O   0  0  0  0  0  0  0  0  0  0  0  0
   90.2707   48.1110  266.3142 N   0  0  0  0  0  0  0  0  0  0  0  0
   93.5987   51.1027  268.3120 C   0  0  0  0  0  0  0  0  0  0  0  0
   92.9194   51.5074  269.4662 C   0  0  0  0  0  0  0  0  0  0  0  0
   93.2015   52.7233  270.1079 C   0  0  0  0  0  0  0  0  0  0  0  0
   94.1623   53.5590  269.5218 C   0  0  0  0  0  0  0  0  0  0  0  0
   94.8605   53.1670  268.3804 C   0  0  0  0  0  0  0  0  0  0  0  0
   94.5797   51.9421  267.7804 C   0  0  0  0  0  0  0  0  0  0  0  0
   92.5677   53.0728  271.3295 N   0  0  0  0  0  0  0  0  0  0  0  0
   92.8524   54.3513  271.9762 C   0  0  0  0  0  0  0  0  0  0  0  0
   91.4472   52.2880  271.8453 C   0  0  0  0  0  0  0  0  0  0  0  0
   92.2896   46.4052  265.9989 H   0  0  0  0  0  0  0  0  0  0  0  0
   91.2126   50.2741  267.4410 H   0  0  0  0  0  0  0  0  0  0  0  0
   94.5357   49.1765  266.5216 H   0  0  0  0  0  0  0  0  0  0  0  0
   97.4817   48.0947  268.0542 H   0  0  0  0  0  0  0  0  0  0  0  0
   96.7964   45.9459  267.1122 H   0  0  0  0  0  0  0  0  0  0  0  0
   91.4137   47.5275  264.0130 H   0  0  0  0  0  0  0  0  0  0  0  0
   88.2272   45.4032  262.3282 H   0  0  0  0  0  0  0  0  0  0  0  0
   86.8950   45.6588  264.3791 H   0  0  0  0  0  0  0  0  0  0  0  0
   87.8827   45.6033  269.0081 H   0  0  0  0  0  0  0  0  0  0  0  0
   88.3257   44.6465  267.5539 H   0  0  0  0  0  0  0  0  0  0  0  0
   89.4212   45.9416  268.1451 H   0  0  0  0  0  0  0  0  0  0  0  0
   92.1545   50.8644  269.8759 H   0  0  0  0  0  0  0  0  0  0  0  0
   94.3654   54.5239  269.9623 H   0  0  0  0  0  0  0  0  0  0  0  0
   95.6184   53.8127  267.9620 H   0  0  0  0  0  0  0  0  0  0  0  0
   95.1242   51.6395  266.8982 H   0  0  0  0  0  0  0  0  0  0  0  0
   92.2665   54.4321  272.9037 H   0  0  0  0  0  0  0  0  0  0  0  0
   93.9248   54.4112  272.2137 H   0  0  0  0  0  0  0  0  0  0  0  0
   92.5805   55.1736  271.2981 H   0  0  0  0  0  0  0  0  0  0  0  0
   91.1020   52.7214  272.7956 H   0  0  0  0  0  0  0  0  0  0  0  0
   90.6239   52.3012  271.1159 H   0  0  0  0  0  0  0  0  0  0  0  0
   91.7725   51.2506  272.0124 H   0  0  0  0  0  0  0  0  0  0  0  0
  1  4  2  0  0  0  0
  1  6  1  0  0  0  0
  1 22  1  0  0  0  0
  2  3  1  0  0  0  0
  2  5  2  0  0  0  0
  3  4  1  0  0  0  0
  3 21  2  3  0  0  0
  5  6  1  0  0  0  0
  5 10  1  0  0  0  0
  6  7  1  0  0  0  0
  7  8  2  0  0  0  0
  8  9  1  0  0  0  0
  9 10  2  0  0  0  0
 11 12  2  0  0  0  0
 11 16  1  0  0  0  0
 11 21  1  0  0  0  0
 12 13  1  0  0  0  0
 13 14  2  0  0  0  0
 14 15  1  0  0  0  0
 15 16  2  0  0  0  0
 16 17  1  0  0  0  0
 17 18  2  0  0  0  0
 17 19  1  0  0  0  0
 17 20  2  0  0  0  0
 22 23  2  0  0  0  0
 22 27  1  0  0  0  0
 23 24  1  0  0  0  0
 24 25  2  0  0  0  0
 24 28  1  0  0  0  0
 25 26  1  0  0  0  0
 26 27  2  0  0  0  0
 28 29  1  0  0  0  0
 28 30  1  0  0  0  0
  2 31  1  0  0  0  0
  4 32  1  0  0  0  0
  6 33  1  0  0  0  0
  8 34  1  0  0  0  0
  9 35  1  0  0  0  0
 12 36  1  0  0  0  0
 14 37  1  0  0  0  0
 15 38  1  0  0  0  0
 19 39  1  0  0  0  0
 19 40  1  0  0  0  0
 19 41  1  0  0  0  0
 23 42  1  0  0  0  0
 25 43  1  0  0  0  0
 26 44  1  0  0  0  0
 27 45  1  0  0  0  0
 29 46  1  0  0  0  0
 29 47  1  0  0  0  0
 29 48  1  0  0  0  0
 30 49  1  0  0  0  0
 30 50  1  0  0  0  0
 30 51  1  0  0  0  0
M  END
> <ID>
38

> <IC50[uM]>
0.38

$$$$
38
  -OEChem-05192314313D
 Structure written by MMmdl.
 51 54  0     0  0  0  0  0  0999 V2000
   93.2867   49.7938  267.6782 C   0  0  0  0  0  0  0  0  0  0  0  0
   92.5654   47.3311  266.4816 C   0  0  0  0  0  0  0  0  0  0  0  0
   91.6089   48.3230  266.6726 C   0  0  0  0  0  0  0  0  0  0  0  0
   91.9718   49.5238  267.2764 C   0  0  0  0  0  0  0  0  0  0  0  0
   93.8961   47.5281  266.9156 C   0  0  0  0  0  0  0  0  0  0  0  0
   94.2745   48.7732  267.5111 C   0  0  0  0  0  0  0  0  0  0  0  0
   95.5637   48.9600  267.9394 N   0  0  0  0  0  0  0  0  0  0  0  0
   96.4525   47.9510  267.7602 C   0  0  0  0  0  0  0  0  0  0  0  0
   96.0664   46.7362  267.2062 C   0  0  0  0  0  0  0  0  0  0  0  0
   94.7996   46.5168  266.7811 N   0  0  0  0  0  0  0  0  0  0  0  0
   89.7127   47.3363  265.2872 C   0  0  0  0  0  0  0  0  0  0  0  0
   90.4139   47.1275  264.0953 C   0  0  0  0  0  0  0  0  0  0  0  0
   89.9037   46.4485  263.0367 N   0  0  0  0  0  0  0  0  0  0  0  0
   88.6507   45.9427  263.1625 C   0  0  0  0  0  0  0  0  0  0  0  0
   87.8846   46.0870  264.3185 C   0  0  0  0  0  0  0  0  0  0  0  0
   88.4205   46.7962  265.3983 C   0  0  0  0  0  0  0  0  0  0  0  0
   87.4819   46.8918  266.9282 S   0  0  0  0  0  0  0  0  0  0  0  0
   86.1279   46.3929  266.6697 O   0  0  0  0  0  0  0  0  0  0  0  0
   88.3703   45.6406  268.0228 C   0  0  0  0  0  0  0  0  0  0  0  0
   87.6772   48.2349  267.4843 O   0  0  0  0  0  0  0  0  0  0  0  0
   90.2707   48.1110  266.3142 N   0  0  0  0  0  0  0  0  0  0  0  0
   93.5987   51.1027  268.3120 C   0  0  0  0  0  0  0  0  0  0  0  0
   92.9194   51.5074  269.4662 C   0  0  0  0  0  0  0  0  0  0  0  0
   93.2015   52.7233  270.1079 C   0  0  0  0  0  0  0  0  0  0  0  0
   94.1623   53.5590  269.5218 C   0  0  0  0  0  0  0  0  0  0  0  0
   94.8605   53.1670  268.3804 C   0  0  0  0  0  0  0  0  0  0  0  0
   94.5797   51.9421  267.7804 C   0  0  0  0  0  0  0  0  0  0  0  0
   92.5677   53.0728  271.3295 N   0  0  0  0  0  0  0  0  0  0  0  0
   92.8524   54.3513  271.9762 C   0  0  0  0  0  0  0  0  0  0  0  0
   91.4472   52.2880  271.8453 C   0  0  0  0  0  0  0  0  0  0  0  0
   92.2896   46.4052  265.9989 H   0  0  0  0  0  0  0  0  0  0  0  0
   91.2126   50.2741  267.4410 H   0  0  0  0  0  0  0  0  0  0  0  0
   97.2482   48.3488  267.1132 H   0  0  0  0  0  0  0  0  0  0  0  0
   96.8673   47.7221  268.7529 H   0  0  0  0  0  0  0  0  0  0  0  0
   96.7964   45.9459  267.1122 H   0  0  0  0  0  0  0  0  0  0  0  0
   91.4137   47.5275  264.0130 H   0  0  0  0  0  0  0  0  0  0  0  0
   88.2272   45.4032  262.3282 H   0  0  0  0  0  0  0  0  0  0  0  0
   86.8950   45.6588  264.3791 H   0  0  0  0  0  0  0  0  0  0  0  0
   87.8827   45.6033  269.0081 H   0  0  0  0  0  0  0  0  0  0  0  0
   88.3257   44.6465  267.5539 H   0  0  0  0  0  0  0  0  0  0  0  0
   89.4212   45.9416  268.1451 H   0  0  0  0  0  0  0  0  0  0  0  0
   92.1545   50.8644  269.8759 H   0  0  0  0  0  0  0  0  0  0  0  0
   94.3654   54.5239  269.9623 H   0  0  0  0  0  0  0  0  0  0  0  0
   95.6184   53.8127  267.9620 H   0  0  0  0  0  0  0  0  0  0  0  0
   95.1242   51.6395  266.8982 H   0  0  0  0  0  0  0  0  0  0  0  0
   92.2665   54.4321  272.9037 H   0  0  0  0  0  0  0  0  0  0  0  0
   93.9248   54.4112  272.2137 H   0  0  0  0  0  0  0  0  0  0  0  0
   92.5805   55.1736  271.2981 H   0  0  0  0  0  0  0  0  0  0  0  0
   91.1020   52.7214  272.7956 H   0  0  0  0  0  0  0  0  0  0  0  0
   90.6239   52.3012  271.1159 H   0  0  0  0  0  0  0  0  0  0  0  0
   91.7725   51.2506  272.0124 H   0  0  0  0  0  0  0  0  0  0  0  0
  1  4  2  0  0  0  0
  1  6  1  0  0  0  0
  1 22  1  0  0  0  0
  2  3  1  0  0  0  0
  2  5  2  0  0  0  0
  3  4  1  0  0  0  0
  3 21  2  3  0  0  0
  5  6  1  0  0  0  0
  5 10  1  0  0  0  0
  6  7  2  0  0  0  0
  7  8  1  0  0  0  0
  8  9  1  0  0  0  0
  9 10  2  0  0  0  0
 11 12  2  0  0  0  0
 11 16  1  0  0  0  0
 11 21  1  0  0  0  0
 12 13  1  0  0  0  0
 13 14  2  0  0  0  0
 14 15  1  0  0  0  0
 15 16  2  0  0  0  0
 16 17  1  0  0  0  0
 17 18  2  0  0  0  0
 17 19  1  0  0  0  0
 17 20  2  0  0  0  0
 22 23  2  0  0  0  0
 22 27  1  0  0  0  0
 23 24  1  0  0  0  0
 24 25  2  0  0  0  0
 24 28  1  0  0  0  0
 25 26  1  0  0  0  0
 26 27  2  0  0  0  0
 28 29  1  0  0  0  0
 28 30  1  0  0  0  0
  2 31  1  0  0  0  0
  4 32  1  0  0  0  0
  8 33  1  0  0  0  0
  8 34  1  0  0  0  0
  9 35  1  0  0  0  0
 12 36  1  0  0  0  0
 14 37  1  0  0  0  0
 15 38  1  0  0  0  0
 19 39  1  0  0  0  0
 19 40  1  0  0  0  0
 19 41  1  0  0  0  0
 23 42  1  0  0  0  0
 25 43  1  0  0  0  0
 26 44  1  0  0  0  0
 27 45  1  0  0  0  0
 29 46  1  0  0  0  0
 29 47  1  0  0  0  0
 29 48  1  0  0  0  0
 30 49  1  0  0  0  0
 30 50  1  0  0  0  0
 30 51  1  0  0  0  0
M  END
> <ID>
38

> <IC50[uM]>
0.38

$$$$
