49
  -OEChem-05192314313D
 Structure written by MMmdl.
 45 48  0     0  0  0  0  0  0999 V2000
   93.2820   49.7787  267.6942 C   0  0  0  0  0  0  0  0  0  0  0  0
   92.5593   47.3370  266.4888 C   0  0  0  0  0  0  0  0  0  0  0  0
   91.6047   48.3296  266.6732 C   0  0  0  0  0  0  0  0  0  0  0  0
   91.9709   49.5231  267.2782 C   0  0  0  0  0  0  0  0  0  0  0  0
   93.8953   47.5304  266.9261 C   0  0  0  0  0  0  0  0  0  0  0  0
   94.2750   48.7673  267.5290 C   0  0  0  0  0  0  0  0  0  0  0  0
   95.5619   48.9626  267.9535 N   0  0  0  0  0  0  0  0  0  0  0  0
   96.4516   47.9533  267.7695 C   0  0  0  0  0  0  0  0  0  0  0  0
   96.0598   46.7392  267.2106 C   0  0  0  0  0  0  0  0  0  0  0  0
   94.7989   46.5188  266.7897 N   0  0  0  0  0  0  0  0  0  0  0  0
   93.5952   51.0844  268.3313 C   0  0  0  0  0  0  0  0  0  0  0  0
   94.5719   51.9301  267.7852 C   0  0  0  0  0  0  0  0  0  0  0  0
   94.8427   53.1540  268.3966 C   0  0  0  0  0  0  0  0  0  0  0  0
   94.1433   53.5318  269.5201 C   0  0  0  0  0  0  0  0  0  0  0  0
   93.1746   52.7091  270.0775 C   0  0  0  0  0  0  0  0  0  0  0  0
   92.9084   51.4788  269.4813 C   0  0  0  0  0  0  0  0  0  0  0  0
   90.2697   48.1106  266.3099 N   0  0  0  0  0  0  0  0  0  0  0  0
   89.7103   47.3327  265.2784 C   0  0  0  0  0  0  0  0  0  0  0  0
   90.4172   47.1253  264.0922 C   0  0  0  0  0  0  0  0  0  0  0  0
   89.8957   46.4495  263.0389 N   0  0  0  0  0  0  0  0  0  0  0  0
   88.6529   45.9439  263.1611 C   0  0  0  0  0  0  0  0  0  0  0  0
   87.8862   46.0847  264.3178 C   0  0  0  0  0  0  0  0  0  0  0  0
   88.4170   46.8009  265.3996 C   0  0  0  0  0  0  0  0  0  0  0  0
   87.4738   46.8803  266.9122 S   0  0  0  0  0  0  0  0  0  0  0  0
   86.1325   46.4072  266.6648 O   0  0  0  0  0  0  0  0  0  0  0  0
   87.6872   48.2303  267.4905 O   0  0  0  0  0  0  0  0  0  0  0  0
   88.3692   45.6214  267.9982 C   0  0  0  0  0  0  0  0  0  0  0  0
   94.4021   54.7489  270.1265 N   0  0  0  0  0  0  0  0  0  0  0  0
   92.2821   46.4103  266.0085 H   0  0  0  0  0  0  0  0  0  0  0  0
   91.2177   50.2813  267.4335 H   0  0  0  0  0  0  0  0  0  0  0  0
   97.4816   48.0946  268.0618 H   0  0  0  0  0  0  0  0  0  0  0  0
   96.7897   45.9494  267.1115 H   0  0  0  0  0  0  0  0  0  0  0  0
   95.1108   51.6354  266.8969 H   0  0  0  0  0  0  0  0  0  0  0  0
   95.6013   53.8054  267.9884 H   0  0  0  0  0  0  0  0  0  0  0  0
   92.6351   53.0183  270.9606 H   0  0  0  0  0  0  0  0  0  0  0  0
   92.1648   50.8246  269.9119 H   0  0  0  0  0  0  0  0  0  0  0  0
   89.6006   48.5876  266.8798 H   0  0  0  0  0  0  0  0  0  0  0  0
   91.4195   47.5190  264.0105 H   0  0  0  0  0  0  0  0  0  0  0  0
   88.2311   45.4051  262.3255 H   0  0  0  0  0  0  0  0  0  0  0  0
   86.8998   45.6491  264.3789 H   0  0  0  0  0  0  0  0  0  0  0  0
   87.8789   45.5702  268.9816 H   0  0  0  0  0  0  0  0  0  0  0  0
   88.3330   44.6321  267.5186 H   0  0  0  0  0  0  0  0  0  0  0  0
   89.4176   45.9283  268.1269 H   0  0  0  0  0  0  0  0  0  0  0  0
   93.8071   54.8584  270.9227 H   0  0  0  0  0  0  0  0  0  0  0  0
   95.3581   54.7792  270.4183 H   0  0  0  0  0  0  0  0  0  0  0  0
  1  4  2  0  0  0  0
  1  6  1  0  0  0  0
  1 11  1  0  0  0  0
  2  3  2  0  0  0  0
  2  5  1  0  0  0  0
  3  4  1  0  0  0  0
  3 17  1  0  0  0  0
  5  6  2  0  0  0  0
  5 10  1  0  0  0  0
  6  7  1  0  0  0  0
  7  8  2  0  0  0  0
  8  9  1  0  0  0  0
  9 10  2  0  0  0  0
 11 12  2  0  0  0  0
 11 16  1  0  0  0  0
 12 13  1  0  0  0  0
 13 14  2  0  0  0  0
 14 15  1  0  0  0  0
 14 28  1  0  0  0  0
 15 16  2  0  0  0  0
 17 18  1  0  0  0  0
 18 19  2  0  0  0  0
 18 23  1  0  0  0  0
 19 20  1  0  0  0  0
 20 21  2  0  0  0  0
 21 22  1  0  0  0  0
 22 23  2  0  0  0  0
 23 24  1  0  0  0  0
 24 25  2  0  0  0  0
 24 26  2  0  0  0  0
 24 27  1  0  0  0  0
  2 29  1  0  0  0  0
  4 30  1  0  0  0  0
  8 31  1  0  0  0  0
  9 32  1  0  0  0  0
 12 33  1  0  0  0  0
 13 34  1  0  0  0  0
 15 35  1  0  0  0  0
 16 36  1  0  0  0  0
 17 37  1  0  0  0  0
 19 38  1  0  0  0  0
 21 39  1  0  0  0  0
 22 40  1  0  0  0  0
 27 41  1  0  0  0  0
 27 42  1  0  0  0  0
 27 43  1  0  0  0  0
 28 44  1  0  0  0  0
 28 45  1  0  0  0  0
M  END
> <ID>
49

> <IC50[uM]>
1.528

$$$$
49
  -OEChem-05192314313D
 Structure written by MMmdl.
 45 48  0     0  0  0  0  0  0999 V2000
   93.2820   49.7787  267.6942 C   0  0  0  0  0  0  0  0  0  0  0  0
   92.5593   47.3370  266.4888 C   0  0  0  0  0  0  0  0  0  0  0  0
   91.6047   48.3296  266.6732 C   0  0  0  0  0  0  0  0  0  0  0  0
   91.9709   49.5231  267.2782 C   0  0  0  0  0  0  0  0  0  0  0  0
   93.8953   47.5304  266.9261 C   0  0  0  0  0  0  0  0  0  0  0  0
   94.2750   48.7673  267.5290 C   0  0  0  0  0  0  0  0  0  0  0  0
   95.5619   48.9626  267.9535 N   0  0  0  0  0  0  0  0  0  0  0  0
   96.4516   47.9533  267.7695 C   0  0  0  0  0  0  0  0  0  0  0  0
   96.0598   46.7392  267.2106 C   0  0  0  0  0  0  0  0  0  0  0  0
   94.7989   46.5188  266.7897 N   0  0  0  0  0  0  0  0  0  0  0  0
   93.5952   51.0844  268.3313 C   0  0  0  0  0  0  0  0  0  0  0  0
   94.5719   51.9301  267.7852 C   0  0  0  0  0  0  0  0  0  0  0  0
   94.8427   53.1540  268.3966 C   0  0  0  0  0  0  0  0  0  0  0  0
   94.1433   53.5318  269.5201 C   0  0  0  0  0  0  0  0  0  0  0  0
   93.1746   52.7091  270.0775 C   0  0  0  0  0  0  0  0  0  0  0  0
   92.9084   51.4788  269.4813 C   0  0  0  0  0  0  0  0  0  0  0  0
   90.2697   48.1106  266.3099 N   0  0  0  0  0  0  0  0  0  0  0  0
   89.7103   47.3327  265.2784 C   0  0  0  0  0  0  0  0  0  0  0  0
   90.4172   47.1253  264.0922 C   0  0  0  0  0  0  0  0  0  0  0  0
   89.8957   46.4495  263.0389 N   0  0  0  0  0  0  0  0  0  0  0  0
   88.6529   45.9439  263.1611 C   0  0  0  0  0  0  0  0  0  0  0  0
   87.8862   46.0847  264.3178 C   0  0  0  0  0  0  0  0  0  0  0  0
   88.4170   46.8009  265.3996 C   0  0  0  0  0  0  0  0  0  0  0  0
   87.4738   46.8803  266.9122 S   0  0  0  0  0  0  0  0  0  0  0  0
   86.1325   46.4072  266.6648 O   0  0  0  0  0  0  0  0  0  0  0  0
   87.6872   48.2303  267.4905 O   0  0  0  0  0  0  0  0  0  0  0  0
   88.3692   45.6214  267.9982 C   0  0  0  0  0  0  0  0  0  0  0  0
   94.4021   54.7489  270.1265 N   0  0  0  0  0  0  0  0  0  0  0  0
   92.2821   46.4103  266.0085 H   0  0  0  0  0  0  0  0  0  0  0  0
   91.2177   50.2813  267.4335 H   0  0  0  0  0  0  0  0  0  0  0  0
   97.4816   48.0946  268.0618 H   0  0  0  0  0  0  0  0  0  0  0  0
   96.7897   45.9494  267.1115 H   0  0  0  0  0  0  0  0  0  0  0  0
   94.5344   45.6411  266.3900 H   0  0  0  0  0  0  0  0  0  0  0  0
   95.1108   51.6354  266.8969 H   0  0  0  0  0  0  0  0  0  0  0  0
   95.6013   53.8054  267.9884 H   0  0  0  0  0  0  0  0  0  0  0  0
   92.6351   53.0183  270.9606 H   0  0  0  0  0  0  0  0  0  0  0  0
   92.1648   50.8246  269.9119 H   0  0  0  0  0  0  0  0  0  0  0  0
   91.4195   47.5190  264.0105 H   0  0  0  0  0  0  0  0  0  0  0  0
   88.2311   45.4051  262.3255 H   0  0  0  0  0  0  0  0  0  0  0  0
   86.8998   45.6491  264.3789 H   0  0  0  0  0  0  0  0  0  0  0  0
   87.8789   45.5702  268.9816 H   0  0  0  0  0  0  0  0  0  0  0  0
   88.3330   44.6321  267.5186 H   0  0  0  0  0  0  0  0  0  0  0  0
   89.4176   45.9283  268.1269 H   0  0  0  0  0  0  0  0  0  0  0  0
   93.8071   54.8584  270.9227 H   0  0  0  0  0  0  0  0  0  0  0  0
   95.3581   54.7792  270.4183 H   0  0  0  0  0  0  0  0  0  0  0  0
  1  4  2  0  0  0  0
  1  6  1  0  0  0  0
  1 11  1  0  0  0  0
  2  3  1  0  0  0  0
  2  5  2  0  0  0  0
  3  4  1  0  0  0  0
  3 17  2  3  0  0  0
  5  6  1  0  0  0  0
  5 10  1  0  0  0  0
  6  7  2  0  0  0  0
  7  8  1  0  0  0  0
  8  9  2  0  0  0  0
  9 10  1  0  0  0  0
 11 12  2  0  0  0  0
 11 16  1  0  0  0  0
 12 13  1  0  0  0  0
 13 14  2  0  0  0  0
 14 15  1  0  0  0  0
 14 28  1  0  0  0  0
 15 16  2  0  0  0  0
 17 18  1  0  0  0  0
 18 19  2  0  0  0  0
 18 23  1  0  0  0  0
 19 20  1  0  0  0  0
 20 21  2  0  0  0  0
 21 22  1  0  0  0  0
 22 23  2  0  0  0  0
 23 24  1  0  0  0  0
 24 25  2  0  0  0  0
 24 26  2  0  0  0  0
 24 27  1  0  0  0  0
  2 29  1  0  0  0  0
  4 30  1  0  0  0  0
  8 31  1  0  0  0  0
  9 32  1  0  0  0  0
 10 33  1  0  0  0  0
 12 34  1  0  0  0  0
 13 35  1  0  0  0  0
 15 36  1  0  0  0  0
 16 37  1  0  0  0  0
 19 38  1  0  0  0  0
 21 39  1  0  0  0  0
 22 40  1  0  0  0  0
 27 41  1  0  0  0  0
 27 42  1  0  0  0  0
 27 43  1  0  0  0  0
 28 44  1  0  0  0  0
 28 45  1  0  0  0  0
M  END
> <ID>
49

> <IC50[uM]>
1.528

$$$$
49
  -OEChem-05192314313D
 Structure written by MMmdl.
 45 48  0     0  0  0  0  0  0999 V2000
   93.2820   49.7787  267.6942 C   0  0  0  0  0  0  0  0  0  0  0  0
   92.5593   47.3370  266.4888 C   0  0  0  0  0  0  0  0  0  0  0  0
   91.6047   48.3296  266.6732 C   0  0  0  0  0  0  0  0  0  0  0  0
   91.9709   49.5231  267.2782 C   0  0  0  0  0  0  0  0  0  0  0  0
   93.8953   47.5304  266.9261 C   0  0  0  0  0  0  0  0  0  0  0  0
   94.2750   48.7673  267.5290 C   0  0  0  0  0  0  0  0  0  0  0  0
   95.5619   48.9626  267.9535 N   0  0  0  0  0  0  0  0  0  0  0  0
   96.4516   47.9533  267.7695 C   0  0  0  0  0  0  0  0  0  0  0  0
   96.0598   46.7392  267.2106 C   0  0  0  0  0  0  0  0  0  0  0  0
   94.7989   46.5188  266.7897 N   0  0  0  0  0  0  0  0  0  0  0  0
   93.5952   51.0844  268.3313 C   0  0  0  0  0  0  0  0  0  0  0  0
   94.5719   51.9301  267.7852 C   0  0  0  0  0  0  0  0  0  0  0  0
   94.8427   53.1540  268.3966 C   0  0  0  0  0  0  0  0  0  0  0  0
   94.1433   53.5318  269.5201 C   0  0  0  0  0  0  0  0  0  0  0  0
   93.1746   52.7091  270.0775 C   0  0  0  0  0  0  0  0  0  0  0  0
   92.9084   51.4788  269.4813 C   0  0  0  0  0  0  0  0  0  0  0  0
   90.2697   48.1106  266.3099 N   0  0  0  0  0  0  0  0  0  0  0  0
   89.7103   47.3327  265.2784 C   0  0  0  0  0  0  0  0  0  0  0  0
   90.4172   47.1253  264.0922 C   0  0  0  0  0  0  0  0  0  0  0  0
   89.8957   46.4495  263.0389 N   0  0  0  0  0  0  0  0  0  0  0  0
   88.6529   45.9439  263.1611 C   0  0  0  0  0  0  0  0  0  0  0  0
   87.8862   46.0847  264.3178 C   0  0  0  0  0  0  0  0  0  0  0  0
   88.4170   46.8009  265.3996 C   0  0  0  0  0  0  0  0  0  0  0  0
   87.4738   46.8803  266.9122 S   0  0  0  0  0  0  0  0  0  0  0  0
   86.1325   46.4072  266.6648 O   0  0  0  0  0  0  0  0  0  0  0  0
   87.6872   48.2303  267.4905 O   0  0  0  0  0  0  0  0  0  0  0  0
   88.3692   45.6214  267.9982 C   0  0  0  0  0  0  0  0  0  0  0  0
   94.4021   54.7489  270.1265 N   0  0  0  0  0  0  0  0  0  0  0  0
   92.1855   46.4408  267.0057 H   0  0  0  0  0  0  0  0  0  0  0  0
   92.6071   47.1432  265.4070 H   0  0  0  0  0  0  0  0  0  0  0  0
   91.2177   50.2813  267.4335 H   0  0  0  0  0  0  0  0  0  0  0  0
   97.4816   48.0946  268.0618 H   0  0  0  0  0  0  0  0  0  0  0  0
   96.7897   45.9494  267.1115 H   0  0  0  0  0  0  0  0  0  0  0  0
   95.1108   51.6354  266.8969 H   0  0  0  0  0  0  0  0  0  0  0  0
   95.6013   53.8054  267.9884 H   0  0  0  0  0  0  0  0  0  0  0  0
   92.6351   53.0183  270.9606 H   0  0  0  0  0  0  0  0  0  0  0  0
   92.1648   50.8246  269.9119 H   0  0  0  0  0  0  0  0  0  0  0  0
   91.4195   47.5190  264.0105 H   0  0  0  0  0  0  0  0  0  0  0  0
   88.2311   45.4051  262.3255 H   0  0  0  0  0  0  0  0  0  0  0  0
   86.8998   45.6491  264.3789 H   0  0  0  0  0  0  0  0  0  0  0  0
   87.8789   45.5702  268.9816 H   0  0  0  0  0  0  0  0  0  0  0  0
   88.3330   44.6321  267.5186 H   0  0  0  0  0  0  0  0  0  0  0  0
   89.4176   45.9283  268.1269 H   0  0  0  0  0  0  0  0  0  0  0  0
   93.8071   54.8584  270.9227 H   0  0  0  0  0  0  0  0  0  0  0  0
   95.3581   54.7792  270.4183 H   0  0  0  0  0  0  0  0  0  0  0  0
  1  4  2  0  0  0  0
  1  6  1  0  0  0  0
  1 11  1  0  0  0  0
  2  3  1  0  0  0  0
  2  5  1  0  0  0  0
  3  4  1  0  0  0  0
  3 17  2  3  0  0  0
  5  6  2  0  0  0  0
  5 10  1  0  0  0  0
  6  7  1  0  0  0  0
  7  8  2  0  0  0  0
  8  9  1  0  0  0  0
  9 10  2  0  0  0  0
 11 12  2  0  0  0  0
 11 16  1  0  0  0  0
 12 13  1  0  0  0  0
 13 14  2  0  0  0  0
 14 15  1  0  0  0  0
 14 28  1  0  0  0  0
 15 16  2  0  0  0  0
 17 18  1  0  0  0  0
 18 19  2  0  0  0  0
 18 23  1  0  0  0  0
 19 20  1  0  0  0  0
 20 21  2  0  0  0  0
 21 22  1  0  0  0  0
 22 23  2  0  0  0  0
 23 24  1  0  0  0  0
 24 25  2  0  0  0  0
 24 26  2  0  0  0  0
 24 27  1  0  0  0  0
  2 29  1  0  0  0  0
  2 30  1  0  0  0  0
  4 31  1  0  0  0  0
  8 32  1  0  0  0  0
  9 33  1  0  0  0  0
 12 34  1  0  0  0  0
 13 35  1  0  0  0  0
 15 36  1  0  0  0  0
 16 37  1  0  0  0  0
 19 38  1  0  0  0  0
 21 39  1  0  0  0  0
 22 40  1  0  0  0  0
 27 41  1  0  0  0  0
 27 42  1  0  0  0  0
 27 43  1  0  0  0  0
 28 44  1  0  0  0  0
 28 45  1  0  0  0  0
M  END
> <ID>
49

> <IC50[uM]>
1.528

$$$$
49
  -OEChem-05192314313D
 Structure written by MMmdl.
 45 48  0     0  0  0  0  0  0999 V2000
   93.2820   49.7787  267.6942 C   0  0  0  0  0  0  0  0  0  0  0  0
   92.5593   47.3370  266.4888 C   0  0  0  0  0  0  0  0  0  0  0  0
   91.6047   48.3296  266.6732 C   0  0  0  0  0  0  0  0  0  0  0  0
   91.9709   49.5231  267.2782 C   0  0  0  0  0  0  0  0  0  0  0  0
   93.8953   47.5304  266.9261 C   0  0  0  0  0  0  0  0  0  0  0  0
   94.2750   48.7673  267.5290 C   0  0  0  0  0  0  0  0  0  0  0  0
   95.5619   48.9626  267.9535 N   0  0  0  0  0  0  0  0  0  0  0  0
   96.4516   47.9533  267.7695 C   0  0  0  0  0  0  0  0  0  0  0  0
   96.0598   46.7392  267.2106 C   0  0  0  0  0  0  0  0  0  0  0  0
   94.7989   46.5188  266.7897 N   0  0  0  0  0  0  0  0  0  0  0  0
   93.5952   51.0844  268.3313 C   0  0  0  0  0  0  0  0  0  0  0  0
   94.5719   51.9301  267.7852 C   0  0  0  0  0  0  0  0  0  0  0  0
   94.8427   53.1540  268.3966 C   0  0  0  0  0  0  0  0  0  0  0  0
   94.1433   53.5318  269.5201 C   0  0  0  0  0  0  0  0  0  0  0  0
   93.1746   52.7091  270.0775 C   0  0  0  0  0  0  0  0  0  0  0  0
   92.9084   51.4788  269.4813 C   0  0  0  0  0  0  0  0  0  0  0  0
   90.2697   48.1106  266.3099 N   0  0  0  0  0  0  0  0  0  0  0  0
   89.7103   47.3327  265.2784 C   0  0  0  0  0  0  0  0  0  0  0  0
   90.4172   47.1253  264.0922 C   0  0  0  0  0  0  0  0  0  0  0  0
   89.8957   46.4495  263.0389 N   0  0  0  0  0  0  0  0  0  0  0  0
   88.6529   45.9439  263.1611 C   0  0  0  0  0  0  0  0  0  0  0  0
   87.8862   46.0847  264.3178 C   0  0  0  0  0  0  0  0  0  0  0  0
   88.4170   46.8009  265.3996 C   0  0  0  0  0  0  0  0  0  0  0  0
   87.4738   46.8803  266.9122 S   0  0  0  0  0  0  0  0  0  0  0  0
   86.1325   46.4072  266.6648 O   0  0  0  0  0  0  0  0  0  0  0  0
   87.6872   48.2303  267.4905 O   0  0  0  0  0  0  0  0  0  0  0  0
   88.3692   45.6214  267.9982 C   0  0  0  0  0  0  0  0  0  0  0  0
   94.4021   54.7489  270.1265 N   0  0  0  0  0  0  0  0  0  0  0  0
   92.2821   46.4103  266.0085 H   0  0  0  0  0  0  0  0  0  0  0  0
   91.3408   49.6182  268.1748 H   0  0  0  0  0  0  0  0  0  0  0  0
   91.7151   50.3198  266.5641 H   0  0  0  0  0  0  0  0  0  0  0  0
   97.4816   48.0946  268.0618 H   0  0  0  0  0  0  0  0  0  0  0  0
   96.7897   45.9494  267.1115 H   0  0  0  0  0  0  0  0  0  0  0  0
   95.1108   51.6354  266.8969 H   0  0  0  0  0  0  0  0  0  0  0  0
   95.6013   53.8054  267.9884 H   0  0  0  0  0  0  0  0  0  0  0  0
   92.6351   53.0183  270.9606 H   0  0  0  0  0  0  0  0  0  0  0  0
   92.1648   50.8246  269.9119 H   0  0  0  0  0  0  0  0  0  0  0  0
   91.4195   47.5190  264.0105 H   0  0  0  0  0  0  0  0  0  0  0  0
   88.2311   45.4051  262.3255 H   0  0  0  0  0  0  0  0  0  0  0  0
   86.8998   45.6491  264.3789 H   0  0  0  0  0  0  0  0  0  0  0  0
   87.8789   45.5702  268.9816 H   0  0  0  0  0  0  0  0  0  0  0  0
   88.3330   44.6321  267.5186 H   0  0  0  0  0  0  0  0  0  0  0  0
   89.4176   45.9283  268.1269 H   0  0  0  0  0  0  0  0  0  0  0  0
   93.8071   54.8584  270.9227 H   0  0  0  0  0  0  0  0  0  0  0  0
   95.3581   54.7792  270.4183 H   0  0  0  0  0  0  0  0  0  0  0  0
  1  4  1  0  0  0  0
  1  6  2  0  0  0  0
  1 11  1  0  0  0  0
  2  3  1  0  0  0  0
  2  5  2  0  0  0  0
  3  4  1  0  0  0  0
  3 17  2  3  0  0  0
  5  6  1  0  0  0  0
  5 10  1  0  0  0  0
  6  7  1  0  0  0  0
  7  8  2  0  0  0  0
  8  9  1  0  0  0  0
  9 10  2  0  0  0  0
 11 12  2  0  0  0  0
 11 16  1  0  0  0  0
 12 13  1  0  0  0  0
 13 14  2  0  0  0  0
 14 15  1  0  0  0  0
 14 28  1  0  0  0  0
 15 16  2  0  0  0  0
 17 18  1  0  0  0  0
 18 19  2  0  0  0  0
 18 23  1  0  0  0  0
 19 20  1  0  0  0  0
 20 21  2  0  0  0  0
 21 22  1  0  0  0  0
 22 23  2  0  0  0  0
 23 24  1  0  0  0  0
 24 25  2  0  0  0  0
 24 26  2  0  0  0  0
 24 27  1  0  0  0  0
  2 29  1  0  0  0  0
  4 30  1  0  0  0  0
  4 31  1  0  0  0  0
  8 32  1  0  0  0  0
  9 33  1  0  0  0  0
 12 34  1  0  0  0  0
 13 35  1  0  0  0  0
 15 36  1  0  0  0  0
 16 37  1  0  0  0  0
 19 38  1  0  0  0  0
 21 39  1  0  0  0  0
 22 40  1  0  0  0  0
 27 41  1  0  0  0  0
 27 42  1  0  0  0  0
 27 43  1  0  0  0  0
 28 44  1  0  0  0  0
 28 45  1  0  0  0  0
M  END
> <ID>
49

> <IC50[uM]>
1.528

$$$$
49
  -OEChem-05192314313D
 Structure written by MMmdl.
 45 48  0     1  0  0  0  0  0999 V2000
   93.2820   49.7787  267.6942 C   0  0  0  0  0  0  0  0  0  0  0  0
   92.5593   47.3370  266.4888 C   0  0  0  0  0  0  0  0  0  0  0  0
   91.6047   48.3296  266.6732 C   0  0  0  0  0  0  0  0  0  0  0  0
   91.9709   49.5231  267.2782 C   0  0  0  0  0  0  0  0  0  0  0  0
   93.8953   47.5304  266.9261 C   0  0  0  0  0  0  0  0  0  0  0  0
   94.2750   48.7673  267.5290 C   0  0  0  0  0  0  0  0  0  0  0  0
   95.5619   48.9626  267.9535 N   0  0  0  0  0  0  0  0  0  0  0  0
   96.4516   47.9533  267.7695 C   0  0  0  0  0  0  0  0  0  0  0  0
   96.0598   46.7392  267.2106 C   0  0  0  0  0  0  0  0  0  0  0  0
   94.7989   46.5188  266.7897 N   0  0  0  0  0  0  0  0  0  0  0  0
   93.5952   51.0844  268.3313 C   0  0  0  0  0  0  0  0  0  0  0  0
   94.5719   51.9301  267.7852 C   0  0  0  0  0  0  0  0  0  0  0  0
   94.8427   53.1540  268.3966 C   0  0  0  0  0  0  0  0  0  0  0  0
   94.1433   53.5318  269.5201 C   0  0  0  0  0  0  0  0  0  0  0  0
   93.1746   52.7091  270.0775 C   0  0  0  0  0  0  0  0  0  0  0  0
   92.9084   51.4788  269.4813 C   0  0  0  0  0  0  0  0  0  0  0  0
   90.2697   48.1106  266.3099 N   0  0  0  0  0  0  0  0  0  0  0  0
   89.7103   47.3327  265.2784 C   0  0  0  0  0  0  0  0  0  0  0  0
   90.4172   47.1253  264.0922 C   0  0  0  0  0  0  0  0  0  0  0  0
   89.8957   46.4495  263.0389 N   0  0  0  0  0  0  0  0  0  0  0  0
   88.6529   45.9439  263.1611 C   0  0  0  0  0  0  0  0  0  0  0  0
   87.8862   46.0847  264.3178 C   0  0  0  0  0  0  0  0  0  0  0  0
   88.4170   46.8009  265.3996 C   0  0  3  0  0  0  0  0  0  0  0  0
   87.4738   46.8803  266.9122 S   0  0  0  0  0  0  0  0  0  0  0  0
   86.1325   46.4072  266.6648 O   0  0  0  0  0  0  0  0  0  0  0  0
   87.6872   48.2303  267.4905 O   0  0  0  0  0  0  0  0  0  0  0  0
   88.3692   45.6214  267.9982 C   0  0  0  0  0  0  0  0  0  0  0  0
   94.4021   54.7489  270.1265 N   0  0  0  0  0  0  0  0  0  0  0  0
   92.2821   46.4103  266.0085 H   0  0  0  0  0  0  0  0  0  0  0  0
   91.2177   50.2813  267.4335 H   0  0  0  0  0  0  0  0  0  0  0  0
   97.4816   48.0946  268.0618 H   0  0  0  0  0  0  0  0  0  0  0  0
   96.7897   45.9494  267.1115 H   0  0  0  0  0  0  0  0  0  0  0  0
   95.1108   51.6354  266.8969 H   0  0  0  0  0  0  0  0  0  0  0  0
   95.6013   53.8054  267.9884 H   0  0  0  0  0  0  0  0  0  0  0  0
   92.6351   53.0183  270.9606 H   0  0  0  0  0  0  0  0  0  0  0  0
   92.1648   50.8246  269.9119 H   0  0  0  0  0  0  0  0  0  0  0  0
   91.4195   47.5190  264.0105 H   0  0  0  0  0  0  0  0  0  0  0  0
   88.2311   45.4051  262.3255 H   0  0  0  0  0  0  0  0  0  0  0  0
   86.8998   45.6491  264.3789 H   0  0  0  0  0  0  0  0  0  0  0  0
   87.9653   47.7374  265.0406 H   0  0  0  0  0  0  0  0  0  0  0  0
   87.8789   45.5702  268.9816 H   0  0  0  0  0  0  0  0  0  0  0  0
   88.3330   44.6321  267.5186 H   0  0  0  0  0  0  0  0  0  0  0  0
   89.4176   45.9283  268.1269 H   0  0  0  0  0  0  0  0  0  0  0  0
   93.8071   54.8584  270.9227 H   0  0  0  0  0  0  0  0  0  0  0  0
   95.3581   54.7792  270.4183 H   0  0  0  0  0  0  0  0  0  0  0  0
  1  4  2  0  0  0  0
  1  6  1  0  0  0  0
  1 11  1  0  0  0  0
  2  3  2  0  0  0  0
  2  5  1  0  0  0  0
  3  4  1  0  0  0  0
  3 17  1  0  0  0  0
  5  6  2  0  0  0  0
  5 10  1  0  0  0  0
  6  7  1  0  0  0  0
  7  8  2  0  0  0  0
  8  9  1  0  0  0  0
  9 10  2  0  0  0  0
 11 12  2  0  0  0  0
 11 16  1  0  0  0  0
 12 13  1  0  0  0  0
 13 14  2  0  0  0  0
 14 15  1  0  0  0  0
 14 28  1  0  0  0  0
 15 16  2  0  0  0  0
 17 18  2  0  0  0  0
 18 19  1  0  0  0  0
 18 23  1  0  0  0  0
 19 20  2  0  0  0  0
 20 21  1  0  0  0  0
 21 22  2  0  0  0  0
 22 23  1  0  0  0  0
 23 24  1  0  0  0  0
 24 25  2  0  0  0  0
 24 26  2  0  0  0  0
 24 27  1  0  0  0  0
  2 29  1  0  0  0  0
  4 30  1  0  0  0  0
  8 31  1  0  0  0  0
  9 32  1  0  0  0  0
 12 33  1  0  0  0  0
 13 34  1  0  0  0  0
 15 35  1  0  0  0  0
 16 36  1  0  0  0  0
 19 37  1  0  0  0  0
 21 38  1  0  0  0  0
 22 39  1  0  0  0  0
 23 40  1  0  0  0  0
 27 41  1  0  0  0  0
 27 42  1  0  0  0  0
 27 43  1  0  0  0  0
 28 44  1  0  0  0  0
 28 45  1  0  0  0  0
M  END
> <ID>
49

> <IC50[uM]>
1.528

$$$$
49
  -OEChem-05192314313D
 Structure written by MMmdl.
 45 48  0     0  0  0  0  0  0999 V2000
   93.2820   49.7787  267.6942 C   0  0  0  0  0  0  0  0  0  0  0  0
   92.5593   47.3370  266.4888 C   0  0  0  0  0  0  0  0  0  0  0  0
   91.6047   48.3296  266.6732 C   0  0  0  0  0  0  0  0  0  0  0  0
   91.9709   49.5231  267.2782 C   0  0  0  0  0  0  0  0  0  0  0  0
   93.8953   47.5304  266.9261 C   0  0  0  0  0  0  0  0  0  0  0  0
   94.2750   48.7673  267.5290 C   0  0  0  0  0  0  0  0  0  0  0  0
   95.5619   48.9626  267.9535 N   0  0  0  0  0  0  0  0  0  0  0  0
   96.4516   47.9533  267.7695 C   0  0  0  0  0  0  0  0  0  0  0  0
   96.0598   46.7392  267.2106 C   0  0  0  0  0  0  0  0  0  0  0  0
   94.7989   46.5188  266.7897 N   0  0  0  0  0  0  0  0  0  0  0  0
   93.5952   51.0844  268.3313 C   0  0  0  0  0  0  0  0  0  0  0  0
   94.5719   51.9301  267.7852 C   0  0  0  0  0  0  0  0  0  0  0  0
   94.8427   53.1540  268.3966 C   0  0  0  0  0  0  0  0  0  0  0  0
   94.1433   53.5318  269.5201 C   0  0  0  0  0  0  0  0  0  0  0  0
   93.1746   52.7091  270.0775 C   0  0  0  0  0  0  0  0  0  0  0  0
   92.9084   51.4788  269.4813 C   0  0  0  0  0  0  0  0  0  0  0  0
   90.2697   48.1106  266.3099 N   0  0  0  0  0  0  0  0  0  0  0  0
   89.7103   47.3327  265.2784 C   0  0  0  0  0  0  0  0  0  0  0  0
   90.4172   47.1253  264.0922 C   0  0  0  0  0  0  0  0  0  0  0  0
   89.8957   46.4495  263.0389 N   0  0  0  0  0  0  0  0  0  0  0  0
   88.6529   45.9439  263.1611 C   0  0  0  0  0  0  0  0  0  0  0  0
   87.8862   46.0847  264.3178 C   0  0  0  0  0  0  0  0  0  0  0  0
   88.4170   46.8009  265.3996 C   0  0  0  0  0  0  0  0  0  0  0  0
   87.4738   46.8803  266.9122 S   0  0  0  0  0  0  0  0  0  0  0  0
   86.1325   46.4072  266.6648 O   0  0  0  0  0  0  0  0  0  0  0  0
   87.6872   48.2303  267.4905 O   0  0  0  0  0  0  0  0  0  0  0  0
   88.3692   45.6214  267.9982 C   0  0  0  0  0  0  0  0  0  0  0  0
   94.4021   54.7489  270.1265 N   0  0  0  0  0  0  0  0  0  0  0  0
   92.2821   46.4103  266.0085 H   0  0  0  0  0  0  0  0  0  0  0  0
   91.2177   50.2813  267.4335 H   0  0  0  0  0  0  0  0  0  0  0  0
   97.4816   48.0946  268.0618 H   0  0  0  0  0  0  0  0  0  0  0  0
   96.7897   45.9494  267.1115 H   0  0  0  0  0  0  0  0  0  0  0  0
   95.1108   51.6354  266.8969 H   0  0  0  0  0  0  0  0  0  0  0  0
   95.6013   53.8054  267.9884 H   0  0  0  0  0  0  0  0  0  0  0  0
   92.6351   53.0183  270.9606 H   0  0  0  0  0  0  0  0  0  0  0  0
   92.1648   50.8246  269.9119 H   0  0  0  0  0  0  0  0  0  0  0  0
   91.4195   47.5190  264.0105 H   0  0  0  0  0  0  0  0  0  0  0  0
   88.0619   46.3927  262.3492 H   0  0  0  0  0  0  0  0  0  0  0  0
   88.7479   44.8614  262.9903 H   0  0  0  0  0  0  0  0  0  0  0  0
   86.8998   45.6491  264.3789 H   0  0  0  0  0  0  0  0  0  0  0  0
   87.8789   45.5702  268.9816 H   0  0  0  0  0  0  0  0  0  0  0  0
   88.3330   44.6321  267.5186 H   0  0  0  0  0  0  0  0  0  0  0  0
   89.4176   45.9283  268.1269 H   0  0  0  0  0  0  0  0  0  0  0  0
   93.8071   54.8584  270.9227 H   0  0  0  0  0  0  0  0  0  0  0  0
   95.3581   54.7792  270.4183 H   0  0  0  0  0  0  0  0  0  0  0  0
  1  4  2  0  0  0  0
  1  6  1  0  0  0  0
  1 11  1  0  0  0  0
  2  3  2  0  0  0  0
  2  5  1  0  0  0  0
  3  4  1  0  0  0  0
  3 17  1  0  0  0  0
  5  6  2  0  0  0  0
  5 10  1  0  0  0  0
  6  7  1  0  0  0  0
  7  8  2  0  0  0  0
  8  9  1  0  0  0  0
  9 10  2  0  0  0  0
 11 12  2  0  0  0  0
 11 16  1  0  0  0  0
 12 13  1  0  0  0  0
 13 14  2  0  0  0  0
 14 15  1  0  0  0  0
 14 28  1  0  0  0  0
 15 16  2  0  0  0  0
 17 18  2  0  0  0  0
 18 19  1  0  0  0  0
 18 23  1  0  0  0  0
 19 20  2  0  0  0  0
 20 21  1  0  0  0  0
 21 22  1  0  0  0  0
 22 23  2  0  0  0  0
 23 24  1  0  0  0  0
 24 25  2  0  0  0  0
 24 26  2  0  0  0  0
 24 27  1  0  0  0  0
  2 29  1  0  0  0  0
  4 30  1  0  0  0  0
  8 31  1  0  0  0  0
  9 32  1  0  0  0  0
 12 33  1  0  0  0  0
 13 34  1  0  0  0  0
 15 35  1  0  0  0  0
 16 36  1  0  0  0  0
 19 37  1  0  0  0  0
 21 38  1  0  0  0  0
 21 39  1  0  0  0  0
 22 40  1  0  0  0  0
 27 41  1  0  0  0  0
 27 42  1  0  0  0  0
 27 43  1  0  0  0  0
 28 44  1  0  0  0  0
 28 45  1  0  0  0  0
M  END
> <ID>
49

> <IC50[uM]>
1.528

$$$$
49
  -OEChem-05192314313D
 Structure written by MMmdl.
 45 48  0     0  0  0  0  0  0999 V2000
   93.2820   49.7787  267.6942 C   0  0  0  0  0  0  0  0  0  0  0  0
   92.5593   47.3370  266.4888 C   0  0  0  0  0  0  0  0  0  0  0  0
   91.6047   48.3296  266.6732 C   0  0  0  0  0  0  0  0  0  0  0  0
   91.9709   49.5231  267.2782 C   0  0  0  0  0  0  0  0  0  0  0  0
   93.8953   47.5304  266.9261 C   0  0  0  0  0  0  0  0  0  0  0  0
   94.2750   48.7673  267.5290 C   0  0  0  0  0  0  0  0  0  0  0  0
   95.5619   48.9626  267.9535 N   0  0  0  0  0  0  0  0  0  0  0  0
   96.4516   47.9533  267.7695 C   0  0  0  0  0  0  0  0  0  0  0  0
   96.0598   46.7392  267.2106 C   0  0  0  0  0  0  0  0  0  0  0  0
   94.7989   46.5188  266.7897 N   0  0  0  0  0  0  0  0  0  0  0  0
   93.5952   51.0844  268.3313 C   0  0  0  0  0  0  0  0  0  0  0  0
   94.5719   51.9301  267.7852 C   0  0  0  0  0  0  0  0  0  0  0  0
   94.8427   53.1540  268.3966 C   0  0  0  0  0  0  0  0  0  0  0  0
   94.1433   53.5318  269.5201 C   0  0  0  0  0  0  0  0  0  0  0  0
   93.1746   52.7091  270.0775 C   0  0  0  0  0  0  0  0  0  0  0  0
   92.9084   51.4788  269.4813 C   0  0  0  0  0  0  0  0  0  0  0  0
   90.2697   48.1106  266.3099 N   0  0  0  0  0  0  0  0  0  0  0  0
   89.7103   47.3327  265.2784 C   0  0  0  0  0  0  0  0  0  0  0  0
   90.4172   47.1253  264.0922 C   0  0  0  0  0  0  0  0  0  0  0  0
   89.8957   46.4495  263.0389 N   0  0  0  0  0  0  0  0  0  0  0  0
   88.6529   45.9439  263.1611 C   0  0  0  0  0  0  0  0  0  0  0  0
   87.8862   46.0847  264.3178 C   0  0  0  0  0  0  0  0  0  0  0  0
   88.4170   46.8009  265.3996 C   0  0  0  0  0  0  0  0  0  0  0  0
   87.4738   46.8803  266.9122 S   0  0  0  0  0  0  0  0  0  0  0  0
   86.1325   46.4072  266.6648 O   0  0  0  0  0  0  0  0  0  0  0  0
   87.6872   48.2303  267.4905 O   0  0  0  0  0  0  0  0  0  0  0  0
   88.3692   45.6214  267.9982 C   0  0  0  0  0  0  0  0  0  0  0  0
   94.4021   54.7489  270.1265 N   0  0  0  0  0  0  0  0  0  0  0  0
   92.2821   46.4103  266.0085 H   0  0  0  0  0  0  0  0  0  0  0  0
   91.2177   50.2813  267.4335 H   0  0  0  0  0  0  0  0  0  0  0  0
   97.4816   48.0946  268.0618 H   0  0  0  0  0  0  0  0  0  0  0  0
   96.7897   45.9494  267.1115 H   0  0  0  0  0  0  0  0  0  0  0  0
   95.1108   51.6354  266.8969 H   0  0  0  0  0  0  0  0  0  0  0  0
   95.6013   53.8054  267.9884 H   0  0  0  0  0  0  0  0  0  0  0  0
   92.6351   53.0183  270.9606 H   0  0  0  0  0  0  0  0  0  0  0  0
   92.1648   50.8246  269.9119 H   0  0  0  0  0  0  0  0  0  0  0  0
   90.6781   48.1248  263.7141 H   0  0  0  0  0  0  0  0  0  0  0  0
   91.3352   46.5889  264.3742 H   0  0  0  0  0  0  0  0  0  0  0  0
   88.2311   45.4051  262.3255 H   0  0  0  0  0  0  0  0  0  0  0  0
   86.8998   45.6491  264.3789 H   0  0  0  0  0  0  0  0  0  0  0  0
   87.8789   45.5702  268.9816 H   0  0  0  0  0  0  0  0  0  0  0  0
   88.3330   44.6321  267.5186 H   0  0  0  0  0  0  0  0  0  0  0  0
   89.4176   45.9283  268.1269 H   0  0  0  0  0  0  0  0  0  0  0  0
   93.8071   54.8584  270.9227 H   0  0  0  0  0  0  0  0  0  0  0  0
   95.3581   54.7792  270.4183 H   0  0  0  0  0  0  0  0  0  0  0  0
  1  4  2  0  0  0  0
  1  6  1  0  0  0  0
  1 11  1  0  0  0  0
  2  3  2  0  0  0  0
  2  5  1  0  0  0  0
  3  4  1  0  0  0  0
  3 17  1  0  0  0  0
  5  6  2  0  0  0  0
  5 10  1  0  0  0  0
  6  7  1  0  0  0  0
  7  8  2  0  0  0  0
  8  9  1  0  0  0  0
  9 10  2  0  0  0  0
 11 12  2  0  0  0  0
 11 16  1  0  0  0  0
 12 13  1  0  0  0  0
 13 14  2  0  0  0  0
 14 15  1  0  0  0  0
 14 28  1  0  0  0  0
 15 16  2  0  0  0  0
 17 18  2  0  0  0  0
 18 19  1  0  0  0  0
 18 23  1  0  0  0  0
 19 20  1  0  0  0  0
 20 21  2  0  0  0  0
 21 22  1  0  0  0  0
 22 23  2  0  0  0  0
 23 24  1  0  0  0  0
 24 25  2  0  0  0  0
 24 26  2  0  0  0  0
 24 27  1  0  0  0  0
  2 29  1  0  0  0  0
  4 30  1  0  0  0  0
  8 31  1  0  0  0  0
  9 32  1  0  0  0  0
 12 33  1  0  0  0  0
 13 34  1  0  0  0  0
 15 35  1  0  0  0  0
 16 36  1  0  0  0  0
 19 37  1  0  0  0  0
 19 38  1  0  0  0  0
 21 39  1  0  0  0  0
 22 40  1  0  0  0  0
 27 41  1  0  0  0  0
 27 42  1  0  0  0  0
 27 43  1  0  0  0  0
 28 44  1  0  0  0  0
 28 45  1  0  0  0  0
M  END
> <ID>
49

> <IC50[uM]>
1.528

$$$$
49
  -OEChem-05192314313D
 Structure written by MMmdl.
 45 48  0     0  0  0  0  0  0999 V2000
   93.2820   49.7787  267.6942 C   0  0  0  0  0  0  0  0  0  0  0  0
   92.5593   47.3370  266.4888 C   0  0  0  0  0  0  0  0  0  0  0  0
   91.6047   48.3296  266.6732 C   0  0  0  0  0  0  0  0  0  0  0  0
   91.9709   49.5231  267.2782 C   0  0  0  0  0  0  0  0  0  0  0  0
   93.8953   47.5304  266.9261 C   0  0  0  0  0  0  0  0  0  0  0  0
   94.2750   48.7673  267.5290 C   0  0  0  0  0  0  0  0  0  0  0  0
   95.5619   48.9626  267.9535 N   0  0  0  0  0  0  0  0  0  0  0  0
   96.4516   47.9533  267.7695 C   0  0  0  0  0  0  0  0  0  0  0  0
   96.0598   46.7392  267.2106 C   0  0  0  0  0  0  0  0  0  0  0  0
   94.7989   46.5188  266.7897 N   0  0  0  0  0  0  0  0  0  0  0  0
   93.5952   51.0844  268.3313 C   0  0  0  0  0  0  0  0  0  0  0  0
   94.5719   51.9301  267.7852 C   0  0  0  0  0  0  0  0  0  0  0  0
   94.8427   53.1540  268.3966 C   0  0  0  0  0  0  0  0  0  0  0  0
   94.1433   53.5318  269.5201 C   0  0  0  0  0  0  0  0  0  0  0  0
   93.1746   52.7091  270.0775 C   0  0  0  0  0  0  0  0  0  0  0  0
   92.9084   51.4788  269.4813 C   0  0  0  0  0  0  0  0  0  0  0  0
   90.2697   48.1106  266.3099 N   0  0  0  0  0  0  0  0  0  0  0  0
   89.7103   47.3327  265.2784 C   0  0  0  0  0  0  0  0  0  0  0  0
   90.4172   47.1253  264.0922 C   0  0  0  0  0  0  0  0  0  0  0  0
   89.8957   46.4495  263.0389 N   0  0  0  0  0  0  0  0  0  0  0  0
   88.6529   45.9439  263.1611 C   0  0  0  0  0  0  0  0  0  0  0  0
   87.8862   46.0847  264.3178 C   0  0  0  0  0  0  0  0  0  0  0  0
   88.4170   46.8009  265.3996 C   0  0  0  0  0  0  0  0  0  0  0  0
   87.4738   46.8803  266.9122 S   0  0  0  0  0  0  0  0  0  0  0  0
   86.1325   46.4072  266.6648 O   0  0  0  0  0  0  0  0  0  0  0  0
   87.6872   48.2303  267.4905 O   0  0  0  0  0  0  0  0  0  0  0  0
   88.3692   45.6214  267.9982 C   0  0  0  0  0  0  0  0  0  0  0  0
   94.4021   54.7489  270.1265 N   0  0  0  0  0  0  0  0  0  0  0  0
   92.2821   46.4103  266.0085 H   0  0  0  0  0  0  0  0  0  0  0  0
   91.2177   50.2813  267.4335 H   0  0  0  0  0  0  0  0  0  0  0  0
   97.4816   48.0946  268.0618 H   0  0  0  0  0  0  0  0  0  0  0  0
   96.7897   45.9494  267.1115 H   0  0  0  0  0  0  0  0  0  0  0  0
   94.3614   50.5987  268.9535 H   0  0  0  0  0  0  0  0  0  0  0  0
   95.1108   51.6354  266.8969 H   0  0  0  0  0  0  0  0  0  0  0  0
   95.6013   53.8054  267.9884 H   0  0  0  0  0  0  0  0  0  0  0  0
   92.6351   53.0183  270.9606 H   0  0  0  0  0  0  0  0  0  0  0  0
   92.1648   50.8246  269.9119 H   0  0  0  0  0  0  0  0  0  0  0  0
   89.6006   48.5876  266.8798 H   0  0  0  0  0  0  0  0  0  0  0  0
   91.4195   47.5190  264.0105 H   0  0  0  0  0  0  0  0  0  0  0  0
   88.2311   45.4051  262.3255 H   0  0  0  0  0  0  0  0  0  0  0  0
   86.8998   45.6491  264.3789 H   0  0  0  0  0  0  0  0  0  0  0  0
   87.8789   45.5702  268.9816 H   0  0  0  0  0  0  0  0  0  0  0  0
   88.3330   44.6321  267.5186 H   0  0  0  0  0  0  0  0  0  0  0  0
   89.4176   45.9283  268.1269 H   0  0  0  0  0  0  0  0  0  0  0  0
   93.8301   54.8944  270.9337 H   0  0  0  0  0  0  0  0  0  0  0  0
  1  4  2  0  0  0  0
  1  6  1  0  0  0  0
  1 11  1  0  0  0  0
  2  3  2  0  0  0  0
  2  5  1  0  0  0  0
  3  4  1  0  0  0  0
  3 17  1  0  0  0  0
  5  6  2  0  0  0  0
  5 10  1  0  0  0  0
  6  7  1  0  0  0  0
  7  8  2  0  0  0  0
  8  9  1  0  0  0  0
  9 10  2  0  0  0  0
 11 12  1  0  0  0  0
 11 16  1  0  0  0  0
 12 13  2  0  0  0  0
 13 14  1  0  0  0  0
 14 15  1  0  0  0  0
 14 28  2  0  0  0  0
 15 16  2  0  0  0  0
 17 18  1  0  0  0  0
 18 19  2  0  0  0  0
 18 23  1  0  0  0  0
 19 20  1  0  0  0  0
 20 21  2  0  0  0  0
 21 22  1  0  0  0  0
 22 23  2  0  0  0  0
 23 24  1  0  0  0  0
 24 25  2  0  0  0  0
 24 26  2  0  0  0  0
 24 27  1  0  0  0  0
  2 29  1  0  0  0  0
  4 30  1  0  0  0  0
  8 31  1  0  0  0  0
  9 32  1  0  0  0  0
 11 33  1  0  0  0  0
 12 34  1  0  0  0  0
 13 35  1  0  0  0  0
 15 36  1  0  0  0  0
 16 37  1  0  0  0  0
 17 38  1  0  0  0  0
 19 39  1  0  0  0  0
 21 40  1  0  0  0  0
 22 41  1  0  0  0  0
 27 42  1  0  0  0  0
 27 43  1  0  0  0  0
 27 44  1  0  0  0  0
 28 45  1  0  0  0  0
M  END
> <ID>
49

> <IC50[uM]>
1.528

$$$$
49
  -OEChem-05192314313D
 Structure written by MMmdl.
 45 48  0     0  0  0  0  0  0999 V2000
   93.2820   49.7787  267.6942 C   0  0  0  0  0  0  0  0  0  0  0  0
   92.5593   47.3370  266.4888 C   0  0  0  0  0  0  0  0  0  0  0  0
   91.6047   48.3296  266.6732 C   0  0  0  0  0  0  0  0  0  0  0  0
   91.9709   49.5231  267.2782 C   0  0  0  0  0  0  0  0  0  0  0  0
   93.8953   47.5304  266.9261 C   0  0  0  0  0  0  0  0  0  0  0  0
   94.2750   48.7673  267.5290 C   0  0  0  0  0  0  0  0  0  0  0  0
   95.5619   48.9626  267.9535 N   0  0  0  0  0  0  0  0  0  0  0  0
   96.4516   47.9533  267.7695 C   0  0  0  0  0  0  0  0  0  0  0  0
   96.0598   46.7392  267.2106 C   0  0  0  0  0  0  0  0  0  0  0  0
   94.7989   46.5188  266.7897 N   0  0  0  0  0  0  0  0  0  0  0  0
   93.5952   51.0844  268.3313 C   0  0  0  0  0  0  0  0  0  0  0  0
   94.5719   51.9301  267.7852 C   0  0  0  0  0  0  0  0  0  0  0  0
   94.8427   53.1540  268.3966 C   0  0  0  0  0  0  0  0  0  0  0  0
   94.1433   53.5318  269.5201 C   0  0  0  0  0  0  0  0  0  0  0  0
   93.1746   52.7091  270.0775 C   0  0  0  0  0  0  0  0  0  0  0  0
   92.9084   51.4788  269.4813 C   0  0  0  0  0  0  0  0  0  0  0  0
   90.2697   48.1106  266.3099 N   0  0  0  0  0  0  0  0  0  0  0  0
   89.7103   47.3327  265.2784 C   0  0  0  0  0  0  0  0  0  0  0  0
   90.4172   47.1253  264.0922 C   0  0  0  0  0  0  0  0  0  0  0  0
   89.8957   46.4495  263.0389 N   0  0  0  0  0  0  0  0  0  0  0  0
   88.6529   45.9439  263.1611 C   0  0  0  0  0  0  0  0  0  0  0  0
   87.8862   46.0847  264.3178 C   0  0  0  0  0  0  0  0  0  0  0  0
   88.4170   46.8009  265.3996 C   0  0  0  0  0  0  0  0  0  0  0  0
   87.4738   46.8803  266.9122 S   0  0  0  0  0  0  0  0  0  0  0  0
   86.1325   46.4072  266.6648 O   0  0  0  0  0  0  0  0  0  0  0  0
   87.6872   48.2303  267.4905 O   0  0  0  0  0  0  0  0  0  0  0  0
   88.3692   45.6214  267.9982 C   0  0  0  0  0  0  0  0  0  0  0  0
   94.4021   54.7489  270.1265 N   0  0  0  0  0  0  0  0  0  0  0  0
   92.2821   46.4103  266.0085 H   0  0  0  0  0  0  0  0  0  0  0  0
   91.2177   50.2813  267.4335 H   0  0  0  0  0  0  0  0  0  0  0  0
   97.4816   48.0946  268.0618 H   0  0  0  0  0  0  0  0  0  0  0  0
   96.7897   45.9494  267.1115 H   0  0  0  0  0  0  0  0  0  0  0  0
   95.1108   51.6354  266.8969 H   0  0  0  0  0  0  0  0  0  0  0  0
   95.9070   53.1416  268.6744 H   0  0  0  0  0  0  0  0  0  0  0  0
   94.6706   53.9325  267.6388 H   0  0  0  0  0  0  0  0  0  0  0  0
   92.6351   53.0183  270.9606 H   0  0  0  0  0  0  0  0  0  0  0  0
   92.1648   50.8246  269.9119 H   0  0  0  0  0  0  0  0  0  0  0  0
   89.6006   48.5876  266.8798 H   0  0  0  0  0  0  0  0  0  0  0  0
   91.4195   47.5190  264.0105 H   0  0  0  0  0  0  0  0  0  0  0  0
   88.2311   45.4051  262.3255 H   0  0  0  0  0  0  0  0  0  0  0  0
   86.8998   45.6491  264.3789 H   0  0  0  0  0  0  0  0  0  0  0  0
   87.8789   45.5702  268.9816 H   0  0  0  0  0  0  0  0  0  0  0  0
   88.3330   44.6321  267.5186 H   0  0  0  0  0  0  0  0  0  0  0  0
   89.4176   45.9283  268.1269 H   0  0  0  0  0  0  0  0  0  0  0  0
   93.8301   54.8944  270.9337 H   0  0  0  0  0  0  0  0  0  0  0  0
  1  4  2  0  0  0  0
  1  6  1  0  0  0  0
  1 11  1  0  0  0  0
  2  3  2  0  0  0  0
  2  5  1  0  0  0  0
  3  4  1  0  0  0  0
  3 17  1  0  0  0  0
  5  6  2  0  0  0  0
  5 10  1  0  0  0  0
  6  7  1  0  0  0  0
  7  8  2  0  0  0  0
  8  9  1  0  0  0  0
  9 10  2  0  0  0  0
 11 12  2  0  0  0  0
 11 16  1  0  0  0  0
 12 13  1  0  0  0  0
 13 14  1  0  0  0  0
 14 15  1  0  0  0  0
 14 28  2  0  0  0  0
 15 16  2  0  0  0  0
 17 18  1  0  0  0  0
 18 19  2  0  0  0  0
 18 23  1  0  0  0  0
 19 20  1  0  0  0  0
 20 21  2  0  0  0  0
 21 22  1  0  0  0  0
 22 23  2  0  0  0  0
 23 24  1  0  0  0  0
 24 25  2  0  0  0  0
 24 26  2  0  0  0  0
 24 27  1  0  0  0  0
  2 29  1  0  0  0  0
  4 30  1  0  0  0  0
  8 31  1  0  0  0  0
  9 32  1  0  0  0  0
 12 33  1  0  0  0  0
 13 34  1  0  0  0  0
 13 35  1  0  0  0  0
 15 36  1  0  0  0  0
 16 37  1  0  0  0  0
 17 38  1  0  0  0  0
 19 39  1  0  0  0  0
 21 40  1  0  0  0  0
 22 41  1  0  0  0  0
 27 42  1  0  0  0  0
 27 43  1  0  0  0  0
 27 44  1  0  0  0  0
 28 45  1  0  0  0  0
M  END
> <ID>
49

> <IC50[uM]>
1.528

$$$$
49
  -OEChem-05192314313D
 Structure written by MMmdl.
 45 48  0     0  0  0  0  0  0999 V2000
   93.2820   49.7787  267.6942 C   0  0  0  0  0  0  0  0  0  0  0  0
   92.5593   47.3370  266.4888 C   0  0  0  0  0  0  0  0  0  0  0  0
   91.6047   48.3296  266.6732 C   0  0  0  0  0  0  0  0  0  0  0  0
   91.9709   49.5231  267.2782 C   0  0  0  0  0  0  0  0  0  0  0  0
   93.8953   47.5304  266.9261 C   0  0  0  0  0  0  0  0  0  0  0  0
   94.2750   48.7673  267.5290 C   0  0  0  0  0  0  0  0  0  0  0  0
   95.5619   48.9626  267.9535 N   0  0  0  0  0  0  0  0  0  0  0  0
   96.4516   47.9533  267.7695 C   0  0  0  0  0  0  0  0  0  0  0  0
   96.0598   46.7392  267.2106 C   0  0  0  0  0  0  0  0  0  0  0  0
   94.7989   46.5188  266.7897 N   0  0  0  0  0  0  0  0  0  0  0  0
   93.5952   51.0844  268.3313 C   0  0  0  0  0  0  0  0  0  0  0  0
   94.5719   51.9301  267.7852 C   0  0  0  0  0  0  0  0  0  0  0  0
   94.8427   53.1540  268.3966 C   0  0  0  0  0  0  0  0  0  0  0  0
   94.1433   53.5318  269.5201 C   0  0  0  0  0  0  0  0  0  0  0  0
   93.1746   52.7091  270.0775 C   0  0  0  0  0  0  0  0  0  0  0  0
   92.9084   51.4788  269.4813 C   0  0  0  0  0  0  0  0  0  0  0  0
   90.2697   48.1106  266.3099 N   0  0  0  0  0  0  0  0  0  0  0  0
   89.7103   47.3327  265.2784 C   0  0  0  0  0  0  0  0  0  0  0  0
   90.4172   47.1253  264.0922 C   0  0  0  0  0  0  0  0  0  0  0  0
   89.8957   46.4495  263.0389 N   0  0  0  0  0  0  0  0  0  0  0  0
   88.6529   45.9439  263.1611 C   0  0  0  0  0  0  0  0  0  0  0  0
   87.8862   46.0847  264.3178 C   0  0  0  0  0  0  0  0  0  0  0  0
   88.4170   46.8009  265.3996 C   0  0  0  0  0  0  0  0  0  0  0  0
   87.4738   46.8803  266.9122 S   0  0  0  0  0  0  0  0  0  0  0  0
   86.1325   46.4072  266.6648 O   0  0  0  0  0  0  0  0  0  0  0  0
   87.6872   48.2303  267.4905 O   0  0  0  0  0  0  0  0  0  0  0  0
   88.3692   45.6214  267.9982 C   0  0  0  0  0  0  0  0  0  0  0  0
   94.4021   54.7489  270.1265 N   0  0  0  0  0  0  0  0  0  0  0  0
   92.2821   46.4103  266.0085 H   0  0  0  0  0  0  0  0  0  0  0  0
   91.2177   50.2813  267.4335 H   0  0  0  0  0  0  0  0  0  0  0  0
   97.4816   48.0946  268.0618 H   0  0  0  0  0  0  0  0  0  0  0  0
   96.7897   45.9494  267.1115 H   0  0  0  0  0  0  0  0  0  0  0  0
   94.5344   45.6411  266.3900 H   0  0  0  0  0  0  0  0  0  0  0  0
   94.3614   50.5987  268.9535 H   0  0  0  0  0  0  0  0  0  0  0  0
   95.1108   51.6354  266.8969 H   0  0  0  0  0  0  0  0  0  0  0  0
   95.6013   53.8054  267.9884 H   0  0  0  0  0  0  0  0  0  0  0  0
   92.6351   53.0183  270.9606 H   0  0  0  0  0  0  0  0  0  0  0  0
   92.1648   50.8246  269.9119 H   0  0  0  0  0  0  0  0  0  0  0  0
   91.4195   47.5190  264.0105 H   0  0  0  0  0  0  0  0  0  0  0  0
   88.2311   45.4051  262.3255 H   0  0  0  0  0  0  0  0  0  0  0  0
   86.8998   45.6491  264.3789 H   0  0  0  0  0  0  0  0  0  0  0  0
   87.8789   45.5702  268.9816 H   0  0  0  0  0  0  0  0  0  0  0  0
   88.3330   44.6321  267.5186 H   0  0  0  0  0  0  0  0  0  0  0  0
   89.4176   45.9283  268.1269 H   0  0  0  0  0  0  0  0  0  0  0  0
   93.8301   54.8944  270.9337 H   0  0  0  0  0  0  0  0  0  0  0  0
  1  4  2  0  0  0  0
  1  6  1  0  0  0  0
  1 11  1  0  0  0  0
  2  3  1  0  0  0  0
  2  5  2  0  0  0  0
  3  4  1  0  0  0  0
  3 17  2  3  0  0  0
  5  6  1  0  0  0  0
  5 10  1  0  0  0  0
  6  7  2  0  0  0  0
  7  8  1  0  0  0  0
  8  9  2  0  0  0  0
  9 10  1  0  0  0  0
 11 12  1  0  0  0  0
 11 16  1  0  0  0  0
 12 13  2  0  0  0  0
 13 14  1  0  0  0  0
 14 15  1  0  0  0  0
 14 28  2  0  0  0  0
 15 16  2  0  0  0  0
 17 18  1  0  0  0  0
 18 19  2  0  0  0  0
 18 23  1  0  0  0  0
 19 20  1  0  0  0  0
 20 21  2  0  0  0  0
 21 22  1  0  0  0  0
 22 23  2  0  0  0  0
 23 24  1  0  0  0  0
 24 25  2  0  0  0  0
 24 26  2  0  0  0  0
 24 27  1  0  0  0  0
  2 29  1  0  0  0  0
  4 30  1  0  0  0  0
  8 31  1  0  0  0  0
  9 32  1  0  0  0  0
 10 33  1  0  0  0  0
 11 34  1  0  0  0  0
 12 35  1  0  0  0  0
 13 36  1  0  0  0  0
 15 37  1  0  0  0  0
 16 38  1  0  0  0  0
 19 39  1  0  0  0  0
 21 40  1  0  0  0  0
 22 41  1  0  0  0  0
 27 42  1  0  0  0  0
 27 43  1  0  0  0  0
 27 44  1  0  0  0  0
 28 45  1  0  0  0  0
M  END
> <ID>
49

> <IC50[uM]>
1.528

$$$$
49
  -OEChem-05192314313D
 Structure written by MMmdl.
 45 48  0     0  0  0  0  0  0999 V2000
   93.2820   49.7787  267.6942 C   0  0  0  0  0  0  0  0  0  0  0  0
   92.5593   47.3370  266.4888 C   0  0  0  0  0  0  0  0  0  0  0  0
   91.6047   48.3296  266.6732 C   0  0  0  0  0  0  0  0  0  0  0  0
   91.9709   49.5231  267.2782 C   0  0  0  0  0  0  0  0  0  0  0  0
   93.8953   47.5304  266.9261 C   0  0  0  0  0  0  0  0  0  0  0  0
   94.2750   48.7673  267.5290 C   0  0  0  0  0  0  0  0  0  0  0  0
   95.5619   48.9626  267.9535 N   0  0  0  0  0  0  0  0  0  0  0  0
   96.4516   47.9533  267.7695 C   0  0  0  0  0  0  0  0  0  0  0  0
   96.0598   46.7392  267.2106 C   0  0  0  0  0  0  0  0  0  0  0  0
   94.7989   46.5188  266.7897 N   0  0  0  0  0  0  0  0  0  0  0  0
   93.5952   51.0844  268.3313 C   0  0  0  0  0  0  0  0  0  0  0  0
   94.5719   51.9301  267.7852 C   0  0  0  0  0  0  0  0  0  0  0  0
   94.8427   53.1540  268.3966 C   0  0  0  0  0  0  0  0  0  0  0  0
   94.1433   53.5318  269.5201 C   0  0  0  0  0  0  0  0  0  0  0  0
   93.1746   52.7091  270.0775 C   0  0  0  0  0  0  0  0  0  0  0  0
   92.9084   51.4788  269.4813 C   0  0  0  0  0  0  0  0  0  0  0  0
   90.2697   48.1106  266.3099 N   0  0  0  0  0  0  0  0  0  0  0  0
   89.7103   47.3327  265.2784 C   0  0  0  0  0  0  0  0  0  0  0  0
   90.4172   47.1253  264.0922 C   0  0  0  0  0  0  0  0  0  0  0  0
   89.8957   46.4495  263.0389 N   0  0  0  0  0  0  0  0  0  0  0  0
   88.6529   45.9439  263.1611 C   0  0  0  0  0  0  0  0  0  0  0  0
   87.8862   46.0847  264.3178 C   0  0  0  0  0  0  0  0  0  0  0  0
   88.4170   46.8009  265.3996 C   0  0  0  0  0  0  0  0  0  0  0  0
   87.4738   46.8803  266.9122 S   0  0  0  0  0  0  0  0  0  0  0  0
   86.1325   46.4072  266.6648 O   0  0  0  0  0  0  0  0  0  0  0  0
   87.6872   48.2303  267.4905 O   0  0  0  0  0  0  0  0  0  0  0  0
   88.3692   45.6214  267.9982 C   0  0  0  0  0  0  0  0  0  0  0  0
   94.4021   54.7489  270.1265 N   0  0  0  0  0  0  0  0  0  0  0  0
   92.2821   46.4103  266.0085 H   0  0  0  0  0  0  0  0  0  0  0  0
   91.2177   50.2813  267.4335 H   0  0  0  0  0  0  0  0  0  0  0  0
   97.4816   48.0946  268.0618 H   0  0  0  0  0  0  0  0  0  0  0  0
   96.7897   45.9494  267.1115 H   0  0  0  0  0  0  0  0  0  0  0  0
   94.5344   45.6411  266.3900 H   0  0  0  0  0  0  0  0  0  0  0  0
   95.1108   51.6354  266.8969 H   0  0  0  0  0  0  0  0  0  0  0  0
   95.9070   53.1416  268.6744 H   0  0  0  0  0  0  0  0  0  0  0  0
   94.6706   53.9325  267.6388 H   0  0  0  0  0  0  0  0  0  0  0  0
   92.6351   53.0183  270.9606 H   0  0  0  0  0  0  0  0  0  0  0  0
   92.1648   50.8246  269.9119 H   0  0  0  0  0  0  0  0  0  0  0  0
   91.4195   47.5190  264.0105 H   0  0  0  0  0  0  0  0  0  0  0  0
   88.2311   45.4051  262.3255 H   0  0  0  0  0  0  0  0  0  0  0  0
   86.8998   45.6491  264.3789 H   0  0  0  0  0  0  0  0  0  0  0  0
   87.8789   45.5702  268.9816 H   0  0  0  0  0  0  0  0  0  0  0  0
   88.3330   44.6321  267.5186 H   0  0  0  0  0  0  0  0  0  0  0  0
   89.4176   45.9283  268.1269 H   0  0  0  0  0  0  0  0  0  0  0  0
   93.8301   54.8944  270.9337 H   0  0  0  0  0  0  0  0  0  0  0  0
  1  4  2  0  0  0  0
  1  6  1  0  0  0  0
  1 11  1  0  0  0  0
  2  3  1  0  0  0  0
  2  5  2  0  0  0  0
  3  4  1  0  0  0  0
  3 17  2  3  0  0  0
  5  6  1  0  0  0  0
  5 10  1  0  0  0  0
  6  7  2  0  0  0  0
  7  8  1  0  0  0  0
  8  9  2  0  0  0  0
  9 10  1  0  0  0  0
 11 12  2  0  0  0  0
 11 16  1  0  0  0  0
 12 13  1  0  0  0  0
 13 14  1  0  0  0  0
 14 15  1  0  0  0  0
 14 28  2  0  0  0  0
 15 16  2  0  0  0  0
 17 18  1  0  0  0  0
 18 19  2  0  0  0  0
 18 23  1  0  0  0  0
 19 20  1  0  0  0  0
 20 21  2  0  0  0  0
 21 22  1  0  0  0  0
 22 23  2  0  0  0  0
 23 24  1  0  0  0  0
 24 25  2  0  0  0  0
 24 26  2  0  0  0  0
 24 27  1  0  0  0  0
  2 29  1  0  0  0  0
  4 30  1  0  0  0  0
  8 31  1  0  0  0  0
  9 32  1  0  0  0  0
 10 33  1  0  0  0  0
 12 34  1  0  0  0  0
 13 35  1  0  0  0  0
 13 36  1  0  0  0  0
 15 37  1  0  0  0  0
 16 38  1  0  0  0  0
 19 39  1  0  0  0  0
 21 40  1  0  0  0  0
 22 41  1  0  0  0  0
 27 42  1  0  0  0  0
 27 43  1  0  0  0  0
 27 44  1  0  0  0  0
 28 45  1  0  0  0  0
M  END
> <ID>
49

> <IC50[uM]>
1.528

$$$$
49
  -OEChem-05192314313D
 Structure written by MMmdl.
 45 48  0     1  0  0  0  0  0999 V2000
   93.2820   49.7787  267.6942 C   0  0  0  0  0  0  0  0  0  0  0  0
   92.5593   47.3370  266.4888 C   0  0  0  0  0  0  0  0  0  0  0  0
   91.6047   48.3296  266.6732 C   0  0  0  0  0  0  0  0  0  0  0  0
   91.9709   49.5231  267.2782 C   0  0  0  0  0  0  0  0  0  0  0  0
   93.8953   47.5304  266.9261 C   0  0  0  0  0  0  0  0  0  0  0  0
   94.2750   48.7673  267.5290 C   0  0  3  0  0  0  0  0  0  0  0  0
   95.5619   48.9626  267.9535 N   0  0  0  0  0  0  0  0  0  0  0  0
   96.4516   47.9533  267.7695 C   0  0  0  0  0  0  0  0  0  0  0  0
   96.0598   46.7392  267.2106 C   0  0  0  0  0  0  0  0  0  0  0  0
   94.7989   46.5188  266.7897 N   0  0  0  0  0  0  0  0  0  0  0  0
   93.5952   51.0844  268.3313 C   0  0  0  0  0  0  0  0  0  0  0  0
   94.5719   51.9301  267.7852 C   0  0  0  0  0  0  0  0  0  0  0  0
   94.8427   53.1540  268.3966 C   0  0  0  0  0  0  0  0  0  0  0  0
   94.1433   53.5318  269.5201 C   0  0  0  0  0  0  0  0  0  0  0  0
   93.1746   52.7091  270.0775 C   0  0  0  0  0  0  0  0  0  0  0  0
   92.9084   51.4788  269.4813 C   0  0  0  0  0  0  0  0  0  0  0  0
   90.2697   48.1106  266.3099 N   0  0  0  0  0  0  0  0  0  0  0  0
   89.7103   47.3327  265.2784 C   0  0  0  0  0  0  0  0  0  0  0  0
   90.4172   47.1253  264.0922 C   0  0  0  0  0  0  0  0  0  0  0  0
   89.8957   46.4495  263.0389 N   0  0  0  0  0  0  0  0  0  0  0  0
   88.6529   45.9439  263.1611 C   0  0  0  0  0  0  0  0  0  0  0  0
   87.8862   46.0847  264.3178 C   0  0  0  0  0  0  0  0  0  0  0  0
   88.4170   46.8009  265.3996 C   0  0  0  0  0  0  0  0  0  0  0  0
   87.4738   46.8803  266.9122 S   0  0  0  0  0  0  0  0  0  0  0  0
   86.1325   46.4072  266.6648 O   0  0  0  0  0  0  0  0  0  0  0  0
   87.6872   48.2303  267.4905 O   0  0  0  0  0  0  0  0  0  0  0  0
   88.3692   45.6214  267.9982 C   0  0  0  0  0  0  0  0  0  0  0  0
   94.4021   54.7489  270.1265 N   0  0  0  0  0  0  0  0  0  0  0  0
   92.2821   46.4103  266.0085 H   0  0  0  0  0  0  0  0  0  0  0  0
   91.2177   50.2813  267.4335 H   0  0  0  0  0  0  0  0  0  0  0  0
   94.5335   49.1754  266.5407 H   0  0  0  0  0  0  0  0  0  0  0  0
   97.4816   48.0946  268.0618 H   0  0  0  0  0  0  0  0  0  0  0  0
   96.7897   45.9494  267.1115 H   0  0  0  0  0  0  0  0  0  0  0  0
   95.1108   51.6354  266.8969 H   0  0  0  0  0  0  0  0  0  0  0  0
   95.6013   53.8054  267.9884 H   0  0  0  0  0  0  0  0  0  0  0  0
   92.6351   53.0183  270.9606 H   0  0  0  0  0  0  0  0  0  0  0  0
   92.1648   50.8246  269.9119 H   0  0  0  0  0  0  0  0  0  0  0  0
   91.4195   47.5190  264.0105 H   0  0  0  0  0  0  0  0  0  0  0  0
   88.2311   45.4051  262.3255 H   0  0  0  0  0  0  0  0  0  0  0  0
   86.8998   45.6491  264.3789 H   0  0  0  0  0  0  0  0  0  0  0  0
   87.8789   45.5702  268.9816 H   0  0  0  0  0  0  0  0  0  0  0  0
   88.3330   44.6321  267.5186 H   0  0  0  0  0  0  0  0  0  0  0  0
   89.4176   45.9283  268.1269 H   0  0  0  0  0  0  0  0  0  0  0  0
   93.8071   54.8584  270.9227 H   0  0  0  0  0  0  0  0  0  0  0  0
   95.3581   54.7792  270.4183 H   0  0  0  0  0  0  0  0  0  0  0  0
  1  4  2  0  0  0  0
  1  6  1  0  0  0  0
  1 11  1  0  0  0  0
  2  3  1  0  0  0  0
  2  5  2  0  0  0  0
  3  4  1  0  0  0  0
  3 17  2  3  0  0  0
  5  6  1  0  0  0  0
  5 10  1  0  0  0  0
  6  7  1  0  0  0  0
  7  8  2  0  0  0  0
  8  9  1  0  0  0  0
  9 10  2  0  0  0  0
 11 12  2  0  0  0  0
 11 16  1  0  0  0  0
 12 13  1  0  0  0  0
 13 14  2  0  0  0  0
 14 15  1  0  0  0  0
 14 28  1  0  0  0  0
 15 16  2  0  0  0  0
 17 18  1  0  0  0  0
 18 19  2  0  0  0  0
 18 23  1  0  0  0  0
 19 20  1  0  0  0  0
 20 21  2  0  0  0  0
 21 22  1  0  0  0  0
 22 23  2  0  0  0  0
 23 24  1  0  0  0  0
 24 25  2  0  0  0  0
 24 26  2  0  0  0  0
 24 27  1  0  0  0  0
  2 29  1  0  0  0  0
  4 30  1  0  0  0  0
  6 31  1  0  0  0  0
  8 32  1  0  0  0  0
  9 33  1  0  0  0  0
 12 34  1  0  0  0  0
 13 35  1  0  0  0  0
 15 36  1  0  0  0  0
 16 37  1  0  0  0  0
 19 38  1  0  0  0  0
 21 39  1  0  0  0  0
 22 40  1  0  0  0  0
 27 41  1  0  0  0  0
 27 42  1  0  0  0  0
 27 43  1  0  0  0  0
 28 44  1  0  0  0  0
 28 45  1  0  0  0  0
M  END
> <ID>
49

> <IC50[uM]>
1.528

$$$$
49
  -OEChem-05192314313D
 Structure written by MMmdl.
 45 48  0     0  0  0  0  0  0999 V2000
   93.2820   49.7787  267.6942 C   0  0  0  0  0  0  0  0  0  0  0  0
   92.5593   47.3370  266.4888 C   0  0  0  0  0  0  0  0  0  0  0  0
   91.6047   48.3296  266.6732 C   0  0  0  0  0  0  0  0  0  0  0  0
   91.9709   49.5231  267.2782 C   0  0  0  0  0  0  0  0  0  0  0  0
   93.8953   47.5304  266.9261 C   0  0  0  0  0  0  0  0  0  0  0  0
   94.2750   48.7673  267.5290 C   0  0  0  0  0  0  0  0  0  0  0  0
   95.5619   48.9626  267.9535 N   0  0  0  0  0  0  0  0  0  0  0  0
   96.4516   47.9533  267.7695 C   0  0  0  0  0  0  0  0  0  0  0  0
   96.0598   46.7392  267.2106 C   0  0  0  0  0  0  0  0  0  0  0  0
   94.7989   46.5188  266.7897 N   0  0  0  0  0  0  0  0  0  0  0  0
   93.5952   51.0844  268.3313 C   0  0  0  0  0  0  0  0  0  0  0  0
   94.5719   51.9301  267.7852 C   0  0  0  0  0  0  0  0  0  0  0  0
   94.8427   53.1540  268.3966 C   0  0  0  0  0  0  0  0  0  0  0  0
   94.1433   53.5318  269.5201 C   0  0  0  0  0  0  0  0  0  0  0  0
   93.1746   52.7091  270.0775 C   0  0  0  0  0  0  0  0  0  0  0  0
   92.9084   51.4788  269.4813 C   0  0  0  0  0  0  0  0  0  0  0  0
   90.2697   48.1106  266.3099 N   0  0  0  0  0  0  0  0  0  0  0  0
   89.7103   47.3327  265.2784 C   0  0  0  0  0  0  0  0  0  0  0  0
   90.4172   47.1253  264.0922 C   0  0  0  0  0  0  0  0  0  0  0  0
   89.8957   46.4495  263.0389 N   0  0  0  0  0  0  0  0  0  0  0  0
   88.6529   45.9439  263.1611 C   0  0  0  0  0  0  0  0  0  0  0  0
   87.8862   46.0847  264.3178 C   0  0  0  0  0  0  0  0  0  0  0  0
   88.4170   46.8009  265.3996 C   0  0  0  0  0  0  0  0  0  0  0  0
   87.4738   46.8803  266.9122 S   0  0  0  0  0  0  0  0  0  0  0  0
   86.1325   46.4072  266.6648 O   0  0  0  0  0  0  0  0  0  0  0  0
   87.6872   48.2303  267.4905 O   0  0  0  0  0  0  0  0  0  0  0  0
   88.3692   45.6214  267.9982 C   0  0  0  0  0  0  0  0  0  0  0  0
   94.4021   54.7489  270.1265 N   0  0  0  0  0  0  0  0  0  0  0  0
   92.2821   46.4103  266.0085 H   0  0  0  0  0  0  0  0  0  0  0  0
   91.2177   50.2813  267.4335 H   0  0  0  0  0  0  0  0  0  0  0  0
   97.2464   48.3524  267.1223 H   0  0  0  0  0  0  0  0  0  0  0  0
   96.8682   47.7203  268.7606 H   0  0  0  0  0  0  0  0  0  0  0  0
   96.7897   45.9494  267.1115 H   0  0  0  0  0  0  0  0  0  0  0  0
   95.1108   51.6354  266.8969 H   0  0  0  0  0  0  0  0  0  0  0  0
   95.6013   53.8054  267.9884 H   0  0  0  0  0  0  0  0  0  0  0  0
   92.6351   53.0183  270.9606 H   0  0  0  0  0  0  0  0  0  0  0  0
   92.1648   50.8246  269.9119 H   0  0  0  0  0  0  0  0  0  0  0  0
   91.4195   47.5190  264.0105 H   0  0  0  0  0  0  0  0  0  0  0  0
   88.2311   45.4051  262.3255 H   0  0  0  0  0  0  0  0  0  0  0  0
   86.8998   45.6491  264.3789 H   0  0  0  0  0  0  0  0  0  0  0  0
   87.8789   45.5702  268.9816 H   0  0  0  0  0  0  0  0  0  0  0  0
   88.3330   44.6321  267.5186 H   0  0  0  0  0  0  0  0  0  0  0  0
   89.4176   45.9283  268.1269 H   0  0  0  0  0  0  0  0  0  0  0  0
   93.8071   54.8584  270.9227 H   0  0  0  0  0  0  0  0  0  0  0  0
   95.3581   54.7792  270.4183 H   0  0  0  0  0  0  0  0  0  0  0  0
  1  4  2  0  0  0  0
  1  6  1  0  0  0  0
  1 11  1  0  0  0  0
  2  3  1  0  0  0  0
  2  5  2  0  0  0  0
  3  4  1  0  0  0  0
  3 17  2  3  0  0  0
  5  6  1  0  0  0  0
  5 10  1  0  0  0  0
  6  7  2  0  0  0  0
  7  8  1  0  0  0  0
  8  9  1  0  0  0  0
  9 10  2  0  0  0  0
 11 12  2  0  0  0  0
 11 16  1  0  0  0  0
 12 13  1  0  0  0  0
 13 14  2  0  0  0  0
 14 15  1  0  0  0  0
 14 28  1  0  0  0  0
 15 16  2  0  0  0  0
 17 18  1  0  0  0  0
 18 19  2  0  0  0  0
 18 23  1  0  0  0  0
 19 20  1  0  0  0  0
 20 21  2  0  0  0  0
 21 22  1  0  0  0  0
 22 23  2  0  0  0  0
 23 24  1  0  0  0  0
 24 25  2  0  0  0  0
 24 26  2  0  0  0  0
 24 27  1  0  0  0  0
  2 29  1  0  0  0  0
  4 30  1  0  0  0  0
  8 31  1  0  0  0  0
  8 32  1  0  0  0  0
  9 33  1  0  0  0  0
 12 34  1  0  0  0  0
 13 35  1  0  0  0  0
 15 36  1  0  0  0  0
 16 37  1  0  0  0  0
 19 38  1  0  0  0  0
 21 39  1  0  0  0  0
 22 40  1  0  0  0  0
 27 41  1  0  0  0  0
 27 42  1  0  0  0  0
 27 43  1  0  0  0  0
 28 44  1  0  0  0  0
 28 45  1  0  0  0  0
M  END
> <ID>
49

> <IC50[uM]>
1.528

$$$$
49
  -OEChem-05192314313D
 Structure written by MMmdl.
 45 48  0     0  0  0  0  0  0999 V2000
   93.2820   49.7787  267.6942 C   0  0  0  0  0  0  0  0  0  0  0  0
   92.5593   47.3370  266.4888 C   0  0  0  0  0  0  0  0  0  0  0  0
   91.6047   48.3296  266.6732 C   0  0  0  0  0  0  0  0  0  0  0  0
   91.9709   49.5231  267.2782 C   0  0  0  0  0  0  0  0  0  0  0  0
   93.8953   47.5304  266.9261 C   0  0  0  0  0  0  0  0  0  0  0  0
   94.2750   48.7673  267.5290 C   0  0  0  0  0  0  0  0  0  0  0  0
   95.5619   48.9626  267.9535 N   0  0  0  0  0  0  0  0  0  0  0  0
   96.4516   47.9533  267.7695 C   0  0  0  0  0  0  0  0  0  0  0  0
   96.0598   46.7392  267.2106 C   0  0  0  0  0  0  0  0  0  0  0  0
   94.7989   46.5188  266.7897 N   0  0  0  0  0  0  0  0  0  0  0  0
   93.5952   51.0844  268.3313 C   0  0  0  0  0  0  0  0  0  0  0  0
   94.5719   51.9301  267.7852 C   0  0  0  0  0  0  0  0  0  0  0  0
   94.8427   53.1540  268.3966 C   0  0  0  0  0  0  0  0  0  0  0  0
   94.1433   53.5318  269.5201 C   0  0  0  0  0  0  0  0  0  0  0  0
   93.1746   52.7091  270.0775 C   0  0  0  0  0  0  0  0  0  0  0  0
   92.9084   51.4788  269.4813 C   0  0  0  0  0  0  0  0  0  0  0  0
   90.2697   48.1106  266.3099 N   0  0  0  0  0  0  0  0  0  0  0  0
   89.7103   47.3327  265.2784 C   0  0  0  0  0  0  0  0  0  0  0  0
   90.4172   47.1253  264.0922 C   0  0  0  0  0  0  0  0  0  0  0  0
   89.8957   46.4495  263.0389 N   0  0  0  0  0  0  0  0  0  0  0  0
   88.6529   45.9439  263.1611 C   0  0  0  0  0  0  0  0  0  0  0  0
   87.8862   46.0847  264.3178 C   0  0  0  0  0  0  0  0  0  0  0  0
   88.4170   46.8009  265.3996 C   0  0  0  0  0  0  0  0  0  0  0  0
   87.4738   46.8803  266.9122 S   0  0  0  0  0  0  0  0  0  0  0  0
   86.1325   46.4072  266.6648 O   0  0  0  0  0  0  0  0  0  0  0  0
   87.6872   48.2303  267.4905 O   0  0  0  0  0  0  0  0  0  0  0  0
   88.3692   45.6214  267.9982 C   0  0  0  0  0  0  0  0  0  0  0  0
   94.4021   54.7489  270.1265 N   0  0  0  0  0  0  0  0  0  0  0  0
   92.2821   46.4103  266.0085 H   0  0  0  0  0  0  0  0  0  0  0  0
   91.2177   50.2813  267.4335 H   0  0  0  0  0  0  0  0  0  0  0  0
   97.2464   48.3524  267.1223 H   0  0  0  0  0  0  0  0  0  0  0  0
   96.8682   47.7203  268.7606 H   0  0  0  0  0  0  0  0  0  0  0  0
   96.7897   45.9494  267.1115 H   0  0  0  0  0  0  0  0  0  0  0  0
   95.1108   51.6354  266.8969 H   0  0  0  0  0  0  0  0  0  0  0  0
   95.6013   53.8054  267.9884 H   0  0  0  0  0  0  0  0  0  0  0  0
   92.6351   53.0183  270.9606 H   0  0  0  0  0  0  0  0  0  0  0  0
   92.1648   50.8246  269.9119 H   0  0  0  0  0  0  0  0  0  0  0  0
   89.6006   48.5876  266.8798 H   0  0  0  0  0  0  0  0  0  0  0  0
   91.4195   47.5190  264.0105 H   0  0  0  0  0  0  0  0  0  0  0  0
   88.2311   45.4051  262.3255 H   0  0  0  0  0  0  0  0  0  0  0  0
   86.8998   45.6491  264.3789 H   0  0  0  0  0  0  0  0  0  0  0  0
   87.8789   45.5702  268.9816 H   0  0  0  0  0  0  0  0  0  0  0  0
   88.3330   44.6321  267.5186 H   0  0  0  0  0  0  0  0  0  0  0  0
   89.4176   45.9283  268.1269 H   0  0  0  0  0  0  0  0  0  0  0  0
   93.8301   54.8944  270.9337 H   0  0  0  0  0  0  0  0  0  0  0  0
  1  4  1  0  0  0  0
  1  6  1  0  0  0  0
  1 11  2  0  0  0  0
  2  3  1  0  0  0  0
  2  5  2  0  0  0  0
  3  4  2  0  0  0  0
  3 17  1  0  0  0  0
  5  6  1  0  0  0  0
  5 10  1  0  0  0  0
  6  7  2  0  0  0  0
  7  8  1  0  0  0  0
  8  9  1  0  0  0  0
  9 10  2  0  0  0  0
 11 12  1  0  0  0  0
 11 16  1  0  0  0  0
 12 13  2  0  0  0  0
 13 14  1  0  0  0  0
 14 15  1  0  0  0  0
 14 28  2  0  0  0  0
 15 16  2  0  0  0  0
 17 18  1  0  0  0  0
 18 19  2  0  0  0  0
 18 23  1  0  0  0  0
 19 20  1  0  0  0  0
 20 21  2  0  0  0  0
 21 22  1  0  0  0  0
 22 23  2  0  0  0  0
 23 24  1  0  0  0  0
 24 25  2  0  0  0  0
 24 26  2  0  0  0  0
 24 27  1  0  0  0  0
  2 29  1  0  0  0  0
  4 30  1  0  0  0  0
  8 31  1  0  0  0  0
  8 32  1  0  0  0  0
  9 33  1  0  0  0  0
 12 34  1  0  0  0  0
 13 35  1  0  0  0  0
 15 36  1  0  0  0  0
 16 37  1  0  0  0  0
 17 38  1  0  0  0  0
 19 39  1  0  0  0  0
 21 40  1  0  0  0  0
 22 41  1  0  0  0  0
 27 42  1  0  0  0  0
 27 43  1  0  0  0  0
 27 44  1  0  0  0  0
 28 45  1  0  0  0  0
M  END
> <ID>
49

> <IC50[uM]>
1.528

$$$$
49
  -OEChem-05192314313D
 Structure written by MMmdl.
 45 48  0     0  0  0  0  0  0999 V2000
   93.2820   49.7787  267.6942 C   0  0  0  0  0  0  0  0  0  0  0  0
   92.5593   47.3370  266.4888 C   0  0  0  0  0  0  0  0  0  0  0  0
   91.6047   48.3296  266.6732 C   0  0  0  0  0  0  0  0  0  0  0  0
   91.9709   49.5231  267.2782 C   0  0  0  0  0  0  0  0  0  0  0  0
   93.8953   47.5304  266.9261 C   0  0  0  0  0  0  0  0  0  0  0  0
   94.2750   48.7673  267.5290 C   0  0  0  0  0  0  0  0  0  0  0  0
   95.5619   48.9626  267.9535 N   0  0  0  0  0  0  0  0  0  0  0  0
   96.4516   47.9533  267.7695 C   0  0  0  0  0  0  0  0  0  0  0  0
   96.0598   46.7392  267.2106 C   0  0  0  0  0  0  0  0  0  0  0  0
   94.7989   46.5188  266.7897 N   0  0  0  0  0  0  0  0  0  0  0  0
   93.5952   51.0844  268.3313 C   0  0  0  0  0  0  0  0  0  0  0  0
   94.5719   51.9301  267.7852 C   0  0  0  0  0  0  0  0  0  0  0  0
   94.8427   53.1540  268.3966 C   0  0  0  0  0  0  0  0  0  0  0  0
   94.1433   53.5318  269.5201 C   0  0  0  0  0  0  0  0  0  0  0  0
   93.1746   52.7091  270.0775 C   0  0  0  0  0  0  0  0  0  0  0  0
   92.9084   51.4788  269.4813 C   0  0  0  0  0  0  0  0  0  0  0  0
   90.2697   48.1106  266.3099 N   0  0  0  0  0  0  0  0  0  0  0  0
   89.7103   47.3327  265.2784 C   0  0  0  0  0  0  0  0  0  0  0  0
   90.4172   47.1253  264.0922 C   0  0  0  0  0  0  0  0  0  0  0  0
   89.8957   46.4495  263.0389 N   0  0  0  0  0  0  0  0  0  0  0  0
   88.6529   45.9439  263.1611 C   0  0  0  0  0  0  0  0  0  0  0  0
   87.8862   46.0847  264.3178 C   0  0  0  0  0  0  0  0  0  0  0  0
   88.4170   46.8009  265.3996 C   0  0  0  0  0  0  0  0  0  0  0  0
   87.4738   46.8803  266.9122 S   0  0  0  0  0  0  0  0  0  0  0  0
   86.1325   46.4072  266.6648 O   0  0  0  0  0  0  0  0  0  0  0  0
   87.6872   48.2303  267.4905 O   0  0  0  0  0  0  0  0  0  0  0  0
   88.3692   45.6214  267.9982 C   0  0  0  0  0  0  0  0  0  0  0  0
   94.4021   54.7489  270.1265 N   0  0  0  0  0  0  0  0  0  0  0  0
   92.2821   46.4103  266.0085 H   0  0  0  0  0  0  0  0  0  0  0  0
   91.2177   50.2813  267.4335 H   0  0  0  0  0  0  0  0  0  0  0  0
   97.4816   48.0946  268.0618 H   0  0  0  0  0  0  0  0  0  0  0  0
   96.7897   45.9494  267.1115 H   0  0  0  0  0  0  0  0  0  0  0  0
   94.5344   45.6411  266.3900 H   0  0  0  0  0  0  0  0  0  0  0  0
   95.1108   51.6354  266.8969 H   0  0  0  0  0  0  0  0  0  0  0  0
   95.6013   53.8054  267.9884 H   0  0  0  0  0  0  0  0  0  0  0  0
   92.6351   53.0183  270.9606 H   0  0  0  0  0  0  0  0  0  0  0  0
   92.1648   50.8246  269.9119 H   0  0  0  0  0  0  0  0  0  0  0  0
   89.6006   48.5876  266.8798 H   0  0  0  0  0  0  0  0  0  0  0  0
   91.4195   47.5190  264.0105 H   0  0  0  0  0  0  0  0  0  0  0  0
   88.2311   45.4051  262.3255 H   0  0  0  0  0  0  0  0  0  0  0  0
   86.8998   45.6491  264.3789 H   0  0  0  0  0  0  0  0  0  0  0  0
   87.8789   45.5702  268.9816 H   0  0  0  0  0  0  0  0  0  0  0  0
   88.3330   44.6321  267.5186 H   0  0  0  0  0  0  0  0  0  0  0  0
   89.4176   45.9283  268.1269 H   0  0  0  0  0  0  0  0  0  0  0  0
   93.8301   54.8944  270.9337 H   0  0  0  0  0  0  0  0  0  0  0  0
  1  4  1  0  0  0  0
  1  6  1  0  0  0  0
  1 11  2  0  0  0  0
  2  3  1  0  0  0  0
  2  5  2  0  0  0  0
  3  4  2  0  0  0  0
  3 17  1  0  0  0  0
  5  6  1  0  0  0  0
  5 10  1  0  0  0  0
  6  7  2  0  0  0  0
  7  8  1  0  0  0  0
  8  9  2  0  0  0  0
  9 10  1  0  0  0  0
 11 12  1  0  0  0  0
 11 16  1  0  0  0  0
 12 13  2  0  0  0  0
 13 14  1  0  0  0  0
 14 15  1  0  0  0  0
 14 28  2  0  0  0  0
 15 16  2  0  0  0  0
 17 18  1  0  0  0  0
 18 19  2  0  0  0  0
 18 23  1  0  0  0  0
 19 20  1  0  0  0  0
 20 21  2  0  0  0  0
 21 22  1  0  0  0  0
 22 23  2  0  0  0  0
 23 24  1  0  0  0  0
 24 25  2  0  0  0  0
 24 26  2  0  0  0  0
 24 27  1  0  0  0  0
  2 29  1  0  0  0  0
  4 30  1  0  0  0  0
  8 31  1  0  0  0  0
  9 32  1  0  0  0  0
 10 33  1  0  0  0  0
 12 34  1  0  0  0  0
 13 35  1  0  0  0  0
 15 36  1  0  0  0  0
 16 37  1  0  0  0  0
 17 38  1  0  0  0  0
 19 39  1  0  0  0  0
 21 40  1  0  0  0  0
 22 41  1  0  0  0  0
 27 42  1  0  0  0  0
 27 43  1  0  0  0  0
 27 44  1  0  0  0  0
 28 45  1  0  0  0  0
M  END
> <ID>
49

> <IC50[uM]>
1.528

$$$$
49
  -OEChem-05192314313D
 Structure written by MMmdl.
 45 48  0     0  0  0  0  0  0999 V2000
   93.2820   49.7787  267.6942 C   0  0  0  0  0  0  0  0  0  0  0  0
   92.5593   47.3370  266.4888 C   0  0  0  0  0  0  0  0  0  0  0  0
   91.6047   48.3296  266.6732 C   0  0  0  0  0  0  0  0  0  0  0  0
   91.9709   49.5231  267.2782 C   0  0  0  0  0  0  0  0  0  0  0  0
   93.8953   47.5304  266.9261 C   0  0  0  0  0  0  0  0  0  0  0  0
   94.2750   48.7673  267.5290 C   0  0  0  0  0  0  0  0  0  0  0  0
   95.5619   48.9626  267.9535 N   0  0  0  0  0  0  0  0  0  0  0  0
   96.4516   47.9533  267.7695 C   0  0  0  0  0  0  0  0  0  0  0  0
   96.0598   46.7392  267.2106 C   0  0  0  0  0  0  0  0  0  0  0  0
   94.7989   46.5188  266.7897 N   0  0  0  0  0  0  0  0  0  0  0  0
   93.5952   51.0844  268.3313 C   0  0  0  0  0  0  0  0  0  0  0  0
   94.5719   51.9301  267.7852 C   0  0  0  0  0  0  0  0  0  0  0  0
   94.8427   53.1540  268.3966 C   0  0  0  0  0  0  0  0  0  0  0  0
   94.1433   53.5318  269.5201 C   0  0  0  0  0  0  0  0  0  0  0  0
   93.1746   52.7091  270.0775 C   0  0  0  0  0  0  0  0  0  0  0  0
   92.9084   51.4788  269.4813 C   0  0  0  0  0  0  0  0  0  0  0  0
   90.2697   48.1106  266.3099 N   0  0  0  0  0  0  0  0  0  0  0  0
   89.7103   47.3327  265.2784 C   0  0  0  0  0  0  0  0  0  0  0  0
   90.4172   47.1253  264.0922 C   0  0  0  0  0  0  0  0  0  0  0  0
   89.8957   46.4495  263.0389 N   0  0  0  0  0  0  0  0  0  0  0  0
   88.6529   45.9439  263.1611 C   0  0  0  0  0  0  0  0  0  0  0  0
   87.8862   46.0847  264.3178 C   0  0  0  0  0  0  0  0  0  0  0  0
   88.4170   46.8009  265.3996 C   0  0  0  0  0  0  0  0  0  0  0  0
   87.4738   46.8803  266.9122 S   0  0  0  0  0  0  0  0  0  0  0  0
   86.1325   46.4072  266.6648 O   0  0  0  0  0  0  0  0  0  0  0  0
   87.6872   48.2303  267.4905 O   0  0  0  0  0  0  0  0  0  0  0  0
   88.3692   45.6214  267.9982 C   0  0  0  0  0  0  0  0  0  0  0  0
   94.4021   54.7489  270.1265 N   0  0  0  0  0  0  0  0  0  0  0  0
   92.1855   46.4408  267.0057 H   0  0  0  0  0  0  0  0  0  0  0  0
   92.6071   47.1432  265.4070 H   0  0  0  0  0  0  0  0  0  0  0  0
   91.2177   50.2813  267.4335 H   0  0  0  0  0  0  0  0  0  0  0  0
   97.4816   48.0946  268.0618 H   0  0  0  0  0  0  0  0  0  0  0  0
   96.7897   45.9494  267.1115 H   0  0  0  0  0  0  0  0  0  0  0  0
   94.3614   50.5987  268.9535 H   0  0  0  0  0  0  0  0  0  0  0  0
   95.1108   51.6354  266.8969 H   0  0  0  0  0  0  0  0  0  0  0  0
   95.6013   53.8054  267.9884 H   0  0  0  0  0  0  0  0  0  0  0  0
   92.6351   53.0183  270.9606 H   0  0  0  0  0  0  0  0  0  0  0  0
   92.1648   50.8246  269.9119 H   0  0  0  0  0  0  0  0  0  0  0  0
   91.4195   47.5190  264.0105 H   0  0  0  0  0  0  0  0  0  0  0  0
   88.2311   45.4051  262.3255 H   0  0  0  0  0  0  0  0  0  0  0  0
   86.8998   45.6491  264.3789 H   0  0  0  0  0  0  0  0  0  0  0  0
   87.8789   45.5702  268.9816 H   0  0  0  0  0  0  0  0  0  0  0  0
   88.3330   44.6321  267.5186 H   0  0  0  0  0  0  0  0  0  0  0  0
   89.4176   45.9283  268.1269 H   0  0  0  0  0  0  0  0  0  0  0  0
   93.8301   54.8944  270.9337 H   0  0  0  0  0  0  0  0  0  0  0  0
  1  4  2  0  0  0  0
  1  6  1  0  0  0  0
  1 11  1  0  0  0  0
  2  3  1  0  0  0  0
  2  5  1  0  0  0  0
  3  4  1  0  0  0  0
  3 17  2  3  0  0  0
  5  6  2  0  0  0  0
  5 10  1  0  0  0  0
  6  7  1  0  0  0  0
  7  8  2  0  0  0  0
  8  9  1  0  0  0  0
  9 10  2  0  0  0  0
 11 12  1  0  0  0  0
 11 16  1  0  0  0  0
 12 13  2  0  0  0  0
 13 14  1  0  0  0  0
 14 15  1  0  0  0  0
 14 28  2  0  0  0  0
 15 16  2  0  0  0  0
 17 18  1  0  0  0  0
 18 19  2  0  0  0  0
 18 23  1  0  0  0  0
 19 20  1  0  0  0  0
 20 21  2  0  0  0  0
 21 22  1  0  0  0  0
 22 23  2  0  0  0  0
 23 24  1  0  0  0  0
 24 25  2  0  0  0  0
 24 26  2  0  0  0  0
 24 27  1  0  0  0  0
  2 29  1  0  0  0  0
  2 30  1  0  0  0  0
  4 31  1  0  0  0  0
  8 32  1  0  0  0  0
  9 33  1  0  0  0  0
 11 34  1  0  0  0  0
 12 35  1  0  0  0  0
 13 36  1  0  0  0  0
 15 37  1  0  0  0  0
 16 38  1  0  0  0  0
 19 39  1  0  0  0  0
 21 40  1  0  0  0  0
 22 41  1  0  0  0  0
 27 42  1  0  0  0  0
 27 43  1  0  0  0  0
 27 44  1  0  0  0  0
 28 45  1  0  0  0  0
M  END
> <ID>
49

> <IC50[uM]>
1.528

$$$$
49
  -OEChem-05192314313D
 Structure written by MMmdl.
 45 48  0     0  0  0  0  0  0999 V2000
   93.2820   49.7787  267.6942 C   0  0  0  0  0  0  0  0  0  0  0  0
   92.5593   47.3370  266.4888 C   0  0  0  0  0  0  0  0  0  0  0  0
   91.6047   48.3296  266.6732 C   0  0  0  0  0  0  0  0  0  0  0  0
   91.9709   49.5231  267.2782 C   0  0  0  0  0  0  0  0  0  0  0  0
   93.8953   47.5304  266.9261 C   0  0  0  0  0  0  0  0  0  0  0  0
   94.2750   48.7673  267.5290 C   0  0  0  0  0  0  0  0  0  0  0  0
   95.5619   48.9626  267.9535 N   0  0  0  0  0  0  0  0  0  0  0  0
   96.4516   47.9533  267.7695 C   0  0  0  0  0  0  0  0  0  0  0  0
   96.0598   46.7392  267.2106 C   0  0  0  0  0  0  0  0  0  0  0  0
   94.7989   46.5188  266.7897 N   0  0  0  0  0  0  0  0  0  0  0  0
   93.5952   51.0844  268.3313 C   0  0  0  0  0  0  0  0  0  0  0  0
   94.5719   51.9301  267.7852 C   0  0  0  0  0  0  0  0  0  0  0  0
   94.8427   53.1540  268.3966 C   0  0  0  0  0  0  0  0  0  0  0  0
   94.1433   53.5318  269.5201 C   0  0  0  0  0  0  0  0  0  0  0  0
   93.1746   52.7091  270.0775 C   0  0  0  0  0  0  0  0  0  0  0  0
   92.9084   51.4788  269.4813 C   0  0  0  0  0  0  0  0  0  0  0  0
   90.2697   48.1106  266.3099 N   0  0  0  0  0  0  0  0  0  0  0  0
   89.7103   47.3327  265.2784 C   0  0  0  0  0  0  0  0  0  0  0  0
   90.4172   47.1253  264.0922 C   0  0  0  0  0  0  0  0  0  0  0  0
   89.8957   46.4495  263.0389 N   0  0  0  0  0  0  0  0  0  0  0  0
   88.6529   45.9439  263.1611 C   0  0  0  0  0  0  0  0  0  0  0  0
   87.8862   46.0847  264.3178 C   0  0  0  0  0  0  0  0  0  0  0  0
   88.4170   46.8009  265.3996 C   0  0  0  0  0  0  0  0  0  0  0  0
   87.4738   46.8803  266.9122 S   0  0  0  0  0  0  0  0  0  0  0  0
   86.1325   46.4072  266.6648 O   0  0  0  0  0  0  0  0  0  0  0  0
   87.6872   48.2303  267.4905 O   0  0  0  0  0  0  0  0  0  0  0  0
   88.3692   45.6214  267.9982 C   0  0  0  0  0  0  0  0  0  0  0  0
   94.4021   54.7489  270.1265 N   0  0  0  0  0  0  0  0  0  0  0  0
   92.1855   46.4408  267.0057 H   0  0  0  0  0  0  0  0  0  0  0  0
   92.6071   47.1432  265.4070 H   0  0  0  0  0  0  0  0  0  0  0  0
   91.2177   50.2813  267.4335 H   0  0  0  0  0  0  0  0  0  0  0  0
   97.4816   48.0946  268.0618 H   0  0  0  0  0  0  0  0  0  0  0  0
   96.7897   45.9494  267.1115 H   0  0  0  0  0  0  0  0  0  0  0  0
   95.1108   51.6354  266.8969 H   0  0  0  0  0  0  0  0  0  0  0  0
   95.9070   53.1416  268.6744 H   0  0  0  0  0  0  0  0  0  0  0  0
   94.6706   53.9325  267.6388 H   0  0  0  0  0  0  0  0  0  0  0  0
   92.6351   53.0183  270.9606 H   0  0  0  0  0  0  0  0  0  0  0  0
   92.1648   50.8246  269.9119 H   0  0  0  0  0  0  0  0  0  0  0  0
   91.4195   47.5190  264.0105 H   0  0  0  0  0  0  0  0  0  0  0  0
   88.2311   45.4051  262.3255 H   0  0  0  0  0  0  0  0  0  0  0  0
   86.8998   45.6491  264.3789 H   0  0  0  0  0  0  0  0  0  0  0  0
   87.8789   45.5702  268.9816 H   0  0  0  0  0  0  0  0  0  0  0  0
   88.3330   44.6321  267.5186 H   0  0  0  0  0  0  0  0  0  0  0  0
   89.4176   45.9283  268.1269 H   0  0  0  0  0  0  0  0  0  0  0  0
   93.8301   54.8944  270.9337 H   0  0  0  0  0  0  0  0  0  0  0  0
  1  4  2  0  0  0  0
  1  6  1  0  0  0  0
  1 11  1  0  0  0  0
  2  3  1  0  0  0  0
  2  5  1  0  0  0  0
  3  4  1  0  0  0  0
  3 17  2  3  0  0  0
  5  6  2  0  0  0  0
  5 10  1  0  0  0  0
  6  7  1  0  0  0  0
  7  8  2  0  0  0  0
  8  9  1  0  0  0  0
  9 10  2  0  0  0  0
 11 12  2  0  0  0  0
 11 16  1  0  0  0  0
 12 13  1  0  0  0  0
 13 14  1  0  0  0  0
 14 15  1  0  0  0  0
 14 28  2  0  0  0  0
 15 16  2  0  0  0  0
 17 18  1  0  0  0  0
 18 19  2  0  0  0  0
 18 23  1  0  0  0  0
 19 20  1  0  0  0  0
 20 21  2  0  0  0  0
 21 22  1  0  0  0  0
 22 23  2  0  0  0  0
 23 24  1  0  0  0  0
 24 25  2  0  0  0  0
 24 26  2  0  0  0  0
 24 27  1  0  0  0  0
  2 29  1  0  0  0  0
  2 30  1  0  0  0  0
  4 31  1  0  0  0  0
  8 32  1  0  0  0  0
  9 33  1  0  0  0  0
 12 34  1  0  0  0  0
 13 35  1  0  0  0  0
 13 36  1  0  0  0  0
 15 37  1  0  0  0  0
 16 38  1  0  0  0  0
 19 39  1  0  0  0  0
 21 40  1  0  0  0  0
 22 41  1  0  0  0  0
 27 42  1  0  0  0  0
 27 43  1  0  0  0  0
 27 44  1  0  0  0  0
 28 45  1  0  0  0  0
M  END
> <ID>
49

> <IC50[uM]>
1.528

$$$$
49
  -OEChem-05192314313D
 Structure written by MMmdl.
 45 48  0     0  0  0  0  0  0999 V2000
   93.2820   49.7787  267.6942 C   0  0  0  0  0  0  0  0  0  0  0  0
   92.5593   47.3370  266.4888 C   0  0  0  0  0  0  0  0  0  0  0  0
   91.6047   48.3296  266.6732 C   0  0  0  0  0  0  0  0  0  0  0  0
   91.9709   49.5231  267.2782 C   0  0  0  0  0  0  0  0  0  0  0  0
   93.8953   47.5304  266.9261 C   0  0  0  0  0  0  0  0  0  0  0  0
   94.2750   48.7673  267.5290 C   0  0  0  0  0  0  0  0  0  0  0  0
   95.5619   48.9626  267.9535 N   0  0  0  0  0  0  0  0  0  0  0  0
   96.4516   47.9533  267.7695 C   0  0  0  0  0  0  0  0  0  0  0  0
   96.0598   46.7392  267.2106 C   0  0  0  0  0  0  0  0  0  0  0  0
   94.7989   46.5188  266.7897 N   0  0  0  0  0  0  0  0  0  0  0  0
   93.5952   51.0844  268.3313 C   0  0  0  0  0  0  0  0  0  0  0  0
   94.5719   51.9301  267.7852 C   0  0  0  0  0  0  0  0  0  0  0  0
   94.8427   53.1540  268.3966 C   0  0  0  0  0  0  0  0  0  0  0  0
   94.1433   53.5318  269.5201 C   0  0  0  0  0  0  0  0  0  0  0  0
   93.1746   52.7091  270.0775 C   0  0  0  0  0  0  0  0  0  0  0  0
   92.9084   51.4788  269.4813 C   0  0  0  0  0  0  0  0  0  0  0  0
   90.2697   48.1106  266.3099 N   0  0  0  0  0  0  0  0  0  0  0  0
   89.7103   47.3327  265.2784 C   0  0  0  0  0  0  0  0  0  0  0  0
   90.4172   47.1253  264.0922 C   0  0  0  0  0  0  0  0  0  0  0  0
   89.8957   46.4495  263.0389 N   0  0  0  0  0  0  0  0  0  0  0  0
   88.6529   45.9439  263.1611 C   0  0  0  0  0  0  0  0  0  0  0  0
   87.8862   46.0847  264.3178 C   0  0  0  0  0  0  0  0  0  0  0  0
   88.4170   46.8009  265.3996 C   0  0  0  0  0  0  0  0  0  0  0  0
   87.4738   46.8803  266.9122 S   0  0  0  0  0  0  0  0  0  0  0  0
   86.1325   46.4072  266.6648 O   0  0  0  0  0  0  0  0  0  0  0  0
   87.6872   48.2303  267.4905 O   0  0  0  0  0  0  0  0  0  0  0  0
   88.3692   45.6214  267.9982 C   0  0  0  0  0  0  0  0  0  0  0  0
   94.4021   54.7489  270.1265 N   0  0  0  0  0  0  0  0  0  0  0  0
   92.1855   46.4408  267.0057 H   0  0  0  0  0  0  0  0  0  0  0  0
   92.6071   47.1432  265.4070 H   0  0  0  0  0  0  0  0  0  0  0  0
   91.3408   49.6182  268.1748 H   0  0  0  0  0  0  0  0  0  0  0  0
   91.7151   50.3198  266.5641 H   0  0  0  0  0  0  0  0  0  0  0  0
   97.4816   48.0946  268.0618 H   0  0  0  0  0  0  0  0  0  0  0  0
   96.7897   45.9494  267.1115 H   0  0  0  0  0  0  0  0  0  0  0  0
   95.1108   51.6354  266.8969 H   0  0  0  0  0  0  0  0  0  0  0  0
   95.6013   53.8054  267.9884 H   0  0  0  0  0  0  0  0  0  0  0  0
   92.6351   53.0183  270.9606 H   0  0  0  0  0  0  0  0  0  0  0  0
   92.1648   50.8246  269.9119 H   0  0  0  0  0  0  0  0  0  0  0  0
   91.4195   47.5190  264.0105 H   0  0  0  0  0  0  0  0  0  0  0  0
   88.2311   45.4051  262.3255 H   0  0  0  0  0  0  0  0  0  0  0  0
   86.8998   45.6491  264.3789 H   0  0  0  0  0  0  0  0  0  0  0  0
   87.8789   45.5702  268.9816 H   0  0  0  0  0  0  0  0  0  0  0  0
   88.3330   44.6321  267.5186 H   0  0  0  0  0  0  0  0  0  0  0  0
   89.4176   45.9283  268.1269 H   0  0  0  0  0  0  0  0  0  0  0  0
   93.8301   54.8944  270.9337 H   0  0  0  0  0  0  0  0  0  0  0  0
  1  4  1  0  0  0  0
  1  6  1  0  0  0  0
  1 11  2  0  0  0  0
  2  3  1  0  0  0  0
  2  5  1  0  0  0  0
  3  4  1  0  0  0  0
  3 17  2  3  0  0  0
  5  6  2  0  0  0  0
  5 10  1  0  0  0  0
  6  7  1  0  0  0  0
  7  8  2  0  0  0  0
  8  9  1  0  0  0  0
  9 10  2  0  0  0  0
 11 12  1  0  0  0  0
 11 16  1  0  0  0  0
 12 13  2  0  0  0  0
 13 14  1  0  0  0  0
 14 15  1  0  0  0  0
 14 28  2  0  0  0  0
 15 16  2  0  0  0  0
 17 18  1  0  0  0  0
 18 19  2  0  0  0  0
 18 23  1  0  0  0  0
 19 20  1  0  0  0  0
 20 21  2  0  0  0  0
 21 22  1  0  0  0  0
 22 23  2  0  0  0  0
 23 24  1  0  0  0  0
 24 25  2  0  0  0  0
 24 26  2  0  0  0  0
 24 27  1  0  0  0  0
  2 29  1  0  0  0  0
  2 30  1  0  0  0  0
  4 31  1  0  0  0  0
  4 32  1  0  0  0  0
  8 33  1  0  0  0  0
  9 34  1  0  0  0  0
 12 35  1  0  0  0  0
 13 36  1  0  0  0  0
 15 37  1  0  0  0  0
 16 38  1  0  0  0  0
 19 39  1  0  0  0  0
 21 40  1  0  0  0  0
 22 41  1  0  0  0  0
 27 42  1  0  0  0  0
 27 43  1  0  0  0  0
 27 44  1  0  0  0  0
 28 45  1  0  0  0  0
M  END
> <ID>
49

> <IC50[uM]>
1.528

$$$$
49
  -OEChem-05192314313D
 Structure written by MMmdl.
 45 48  0     0  0  0  0  0  0999 V2000
   93.2820   49.7787  267.6942 C   0  0  0  0  0  0  0  0  0  0  0  0
   92.5593   47.3370  266.4888 C   0  0  0  0  0  0  0  0  0  0  0  0
   91.6047   48.3296  266.6732 C   0  0  0  0  0  0  0  0  0  0  0  0
   91.9709   49.5231  267.2782 C   0  0  0  0  0  0  0  0  0  0  0  0
   93.8953   47.5304  266.9261 C   0  0  0  0  0  0  0  0  0  0  0  0
   94.2750   48.7673  267.5290 C   0  0  0  0  0  0  0  0  0  0  0  0
   95.5619   48.9626  267.9535 N   0  0  0  0  0  0  0  0  0  0  0  0
   96.4516   47.9533  267.7695 C   0  0  0  0  0  0  0  0  0  0  0  0
   96.0598   46.7392  267.2106 C   0  0  0  0  0  0  0  0  0  0  0  0
   94.7989   46.5188  266.7897 N   0  0  0  0  0  0  0  0  0  0  0  0
   93.5952   51.0844  268.3313 C   0  0  0  0  0  0  0  0  0  0  0  0
   94.5719   51.9301  267.7852 C   0  0  0  0  0  0  0  0  0  0  0  0
   94.8427   53.1540  268.3966 C   0  0  0  0  0  0  0  0  0  0  0  0
   94.1433   53.5318  269.5201 C   0  0  0  0  0  0  0  0  0  0  0  0
   93.1746   52.7091  270.0775 C   0  0  0  0  0  0  0  0  0  0  0  0
   92.9084   51.4788  269.4813 C   0  0  0  0  0  0  0  0  0  0  0  0
   90.2697   48.1106  266.3099 N   0  0  0  0  0  0  0  0  0  0  0  0
   89.7103   47.3327  265.2784 C   0  0  0  0  0  0  0  0  0  0  0  0
   90.4172   47.1253  264.0922 C   0  0  0  0  0  0  0  0  0  0  0  0
   89.8957   46.4495  263.0389 N   0  0  0  0  0  0  0  0  0  0  0  0
   88.6529   45.9439  263.1611 C   0  0  0  0  0  0  0  0  0  0  0  0
   87.8862   46.0847  264.3178 C   0  0  0  0  0  0  0  0  0  0  0  0
   88.4170   46.8009  265.3996 C   0  0  0  0  0  0  0  0  0  0  0  0
   87.4738   46.8803  266.9122 S   0  0  0  0  0  0  0  0  0  0  0  0
   86.1325   46.4072  266.6648 O   0  0  0  0  0  0  0  0  0  0  0  0
   87.6872   48.2303  267.4905 O   0  0  0  0  0  0  0  0  0  0  0  0
   88.3692   45.6214  267.9982 C   0  0  0  0  0  0  0  0  0  0  0  0
   94.4021   54.7489  270.1265 N   0  0  0  0  0  0  0  0  0  0  0  0
   92.1855   46.4408  267.0057 H   0  0  0  0  0  0  0  0  0  0  0  0
   92.6071   47.1432  265.4070 H   0  0  0  0  0  0  0  0  0  0  0  0
   91.2177   50.2813  267.4335 H   0  0  0  0  0  0  0  0  0  0  0  0
   97.4816   48.0946  268.0618 H   0  0  0  0  0  0  0  0  0  0  0  0
   96.7897   45.9494  267.1115 H   0  0  0  0  0  0  0  0  0  0  0  0
   95.1108   51.6354  266.8969 H   0  0  0  0  0  0  0  0  0  0  0  0
   95.6013   53.8054  267.9884 H   0  0  0  0  0  0  0  0  0  0  0  0
   92.6351   53.0183  270.9606 H   0  0  0  0  0  0  0  0  0  0  0  0
   92.1648   50.8246  269.9119 H   0  0  0  0  0  0  0  0  0  0  0  0
   89.6006   48.5876  266.8798 H   0  0  0  0  0  0  0  0  0  0  0  0
   91.4195   47.5190  264.0105 H   0  0  0  0  0  0  0  0  0  0  0  0
   88.2311   45.4051  262.3255 H   0  0  0  0  0  0  0  0  0  0  0  0
   86.8998   45.6491  264.3789 H   0  0  0  0  0  0  0  0  0  0  0  0
   87.8789   45.5702  268.9816 H   0  0  0  0  0  0  0  0  0  0  0  0
   88.3330   44.6321  267.5186 H   0  0  0  0  0  0  0  0  0  0  0  0
   89.4176   45.9283  268.1269 H   0  0  0  0  0  0  0  0  0  0  0  0
   93.8301   54.8944  270.9337 H   0  0  0  0  0  0  0  0  0  0  0  0
  1  4  1  0  0  0  0
  1  6  1  0  0  0  0
  1 11  2  0  0  0  0
  2  3  1  0  0  0  0
  2  5  1  0  0  0  0
  3  4  2  0  0  0  0
  3 17  1  0  0  0  0
  5  6  2  0  0  0  0
  5 10  1  0  0  0  0
  6  7  1  0  0  0  0
  7  8  2  0  0  0  0
  8  9  1  0  0  0  0
  9 10  2  0  0  0  0
 11 12  1  0  0  0  0
 11 16  1  0  0  0  0
 12 13  2  0  0  0  0
 13 14  1  0  0  0  0
 14 15  1  0  0  0  0
 14 28  2  0  0  0  0
 15 16  2  0  0  0  0
 17 18  1  0  0  0  0
 18 19  2  0  0  0  0
 18 23  1  0  0  0  0
 19 20  1  0  0  0  0
 20 21  2  0  0  0  0
 21 22  1  0  0  0  0
 22 23  2  0  0  0  0
 23 24  1  0  0  0  0
 24 25  2  0  0  0  0
 24 26  2  0  0  0  0
 24 27  1  0  0  0  0
  2 29  1  0  0  0  0
  2 30  1  0  0  0  0
  4 31  1  0  0  0  0
  8 32  1  0  0  0  0
  9 33  1  0  0  0  0
 12 34  1  0  0  0  0
 13 35  1  0  0  0  0
 15 36  1  0  0  0  0
 16 37  1  0  0  0  0
 17 38  1  0  0  0  0
 19 39  1  0  0  0  0
 21 40  1  0  0  0  0
 22 41  1  0  0  0  0
 27 42  1  0  0  0  0
 27 43  1  0  0  0  0
 27 44  1  0  0  0  0
 28 45  1  0  0  0  0
M  END
> <ID>
49

> <IC50[uM]>
1.528

$$$$
49
  -OEChem-05192314313D
 Structure written by MMmdl.
 45 48  0     0  0  0  0  0  0999 V2000
   93.2820   49.7787  267.6942 C   0  0  0  0  0  0  0  0  0  0  0  0
   92.5593   47.3370  266.4888 C   0  0  0  0  0  0  0  0  0  0  0  0
   91.6047   48.3296  266.6732 C   0  0  0  0  0  0  0  0  0  0  0  0
   91.9709   49.5231  267.2782 C   0  0  0  0  0  0  0  0  0  0  0  0
   93.8953   47.5304  266.9261 C   0  0  0  0  0  0  0  0  0  0  0  0
   94.2750   48.7673  267.5290 C   0  0  0  0  0  0  0  0  0  0  0  0
   95.5619   48.9626  267.9535 N   0  0  0  0  0  0  0  0  0  0  0  0
   96.4516   47.9533  267.7695 C   0  0  0  0  0  0  0  0  0  0  0  0
   96.0598   46.7392  267.2106 C   0  0  0  0  0  0  0  0  0  0  0  0
   94.7989   46.5188  266.7897 N   0  0  0  0  0  0  0  0  0  0  0  0
   93.5952   51.0844  268.3313 C   0  0  0  0  0  0  0  0  0  0  0  0
   94.5719   51.9301  267.7852 C   0  0  0  0  0  0  0  0  0  0  0  0
   94.8427   53.1540  268.3966 C   0  0  0  0  0  0  0  0  0  0  0  0
   94.1433   53.5318  269.5201 C   0  0  0  0  0  0  0  0  0  0  0  0
   93.1746   52.7091  270.0775 C   0  0  0  0  0  0  0  0  0  0  0  0
   92.9084   51.4788  269.4813 C   0  0  0  0  0  0  0  0  0  0  0  0
   90.2697   48.1106  266.3099 N   0  0  0  0  0  0  0  0  0  0  0  0
   89.7103   47.3327  265.2784 C   0  0  0  0  0  0  0  0  0  0  0  0
   90.4172   47.1253  264.0922 C   0  0  0  0  0  0  0  0  0  0  0  0
   89.8957   46.4495  263.0389 N   0  0  0  0  0  0  0  0  0  0  0  0
   88.6529   45.9439  263.1611 C   0  0  0  0  0  0  0  0  0  0  0  0
   87.8862   46.0847  264.3178 C   0  0  0  0  0  0  0  0  0  0  0  0
   88.4170   46.8009  265.3996 C   0  0  0  0  0  0  0  0  0  0  0  0
   87.4738   46.8803  266.9122 S   0  0  0  0  0  0  0  0  0  0  0  0
   86.1325   46.4072  266.6648 O   0  0  0  0  0  0  0  0  0  0  0  0
   87.6872   48.2303  267.4905 O   0  0  0  0  0  0  0  0  0  0  0  0
   88.3692   45.6214  267.9982 C   0  0  0  0  0  0  0  0  0  0  0  0
   94.4021   54.7489  270.1265 N   0  0  0  0  0  0  0  0  0  0  0  0
   92.2821   46.4103  266.0085 H   0  0  0  0  0  0  0  0  0  0  0  0
   91.3408   49.6182  268.1748 H   0  0  0  0  0  0  0  0  0  0  0  0
   91.7151   50.3198  266.5641 H   0  0  0  0  0  0  0  0  0  0  0  0
   97.4816   48.0946  268.0618 H   0  0  0  0  0  0  0  0  0  0  0  0
   96.7897   45.9494  267.1115 H   0  0  0  0  0  0  0  0  0  0  0  0
   95.1108   51.6354  266.8969 H   0  0  0  0  0  0  0  0  0  0  0  0
   95.6013   53.8054  267.9884 H   0  0  0  0  0  0  0  0  0  0  0  0
   92.6351   53.0183  270.9606 H   0  0  0  0  0  0  0  0  0  0  0  0
   92.1648   50.8246  269.9119 H   0  0  0  0  0  0  0  0  0  0  0  0
   89.6006   48.5876  266.8798 H   0  0  0  0  0  0  0  0  0  0  0  0
   91.4195   47.5190  264.0105 H   0  0  0  0  0  0  0  0  0  0  0  0
   88.2311   45.4051  262.3255 H   0  0  0  0  0  0  0  0  0  0  0  0
   86.8998   45.6491  264.3789 H   0  0  0  0  0  0  0  0  0  0  0  0
   87.8789   45.5702  268.9816 H   0  0  0  0  0  0  0  0  0  0  0  0
   88.3330   44.6321  267.5186 H   0  0  0  0  0  0  0  0  0  0  0  0
   89.4176   45.9283  268.1269 H   0  0  0  0  0  0  0  0  0  0  0  0
   93.8301   54.8944  270.9337 H   0  0  0  0  0  0  0  0  0  0  0  0
  1  4  1  0  0  0  0
  1  6  1  0  0  0  0
  1 11  2  0  0  0  0
  2  3  2  0  0  0  0
  2  5  1  0  0  0  0
  3  4  1  0  0  0  0
  3 17  1  0  0  0  0
  5  6  2  0  0  0  0
  5 10  1  0  0  0  0
  6  7  1  0  0  0  0
  7  8  2  0  0  0  0
  8  9  1  0  0  0  0
  9 10  2  0  0  0  0
 11 12  1  0  0  0  0
 11 16  1  0  0  0  0
 12 13  2  0  0  0  0
 13 14  1  0  0  0  0
 14 15  1  0  0  0  0
 14 28  2  0  0  0  0
 15 16  2  0  0  0  0
 17 18  1  0  0  0  0
 18 19  2  0  0  0  0
 18 23  1  0  0  0  0
 19 20  1  0  0  0  0
 20 21  2  0  0  0  0
 21 22  1  0  0  0  0
 22 23  2  0  0  0  0
 23 24  1  0  0  0  0
 24 25  2  0  0  0  0
 24 26  2  0  0  0  0
 24 27  1  0  0  0  0
  2 29  1  0  0  0  0
  4 30  1  0  0  0  0
  4 31  1  0  0  0  0
  8 32  1  0  0  0  0
  9 33  1  0  0  0  0
 12 34  1  0  0  0  0
 13 35  1  0  0  0  0
 15 36  1  0  0  0  0
 16 37  1  0  0  0  0
 17 38  1  0  0  0  0
 19 39  1  0  0  0  0
 21 40  1  0  0  0  0
 22 41  1  0  0  0  0
 27 42  1  0  0  0  0
 27 43  1  0  0  0  0
 27 44  1  0  0  0  0
 28 45  1  0  0  0  0
M  END
> <ID>
49

> <IC50[uM]>
1.528

$$$$
49
  -OEChem-05192314313D
 Structure written by MMmdl.
 45 48  0     0  0  0  0  0  0999 V2000
   93.2820   49.7787  267.6942 C   0  0  0  0  0  0  0  0  0  0  0  0
   92.5593   47.3370  266.4888 C   0  0  0  0  0  0  0  0  0  0  0  0
   91.6047   48.3296  266.6732 C   0  0  0  0  0  0  0  0  0  0  0  0
   91.9709   49.5231  267.2782 C   0  0  0  0  0  0  0  0  0  0  0  0
   93.8953   47.5304  266.9261 C   0  0  0  0  0  0  0  0  0  0  0  0
   94.2750   48.7673  267.5290 C   0  0  0  0  0  0  0  0  0  0  0  0
   95.5619   48.9626  267.9535 N   0  0  0  0  0  0  0  0  0  0  0  0
   96.4516   47.9533  267.7695 C   0  0  0  0  0  0  0  0  0  0  0  0
   96.0598   46.7392  267.2106 C   0  0  0  0  0  0  0  0  0  0  0  0
   94.7989   46.5188  266.7897 N   0  0  0  0  0  0  0  0  0  0  0  0
   93.5952   51.0844  268.3313 C   0  0  0  0  0  0  0  0  0  0  0  0
   94.5719   51.9301  267.7852 C   0  0  0  0  0  0  0  0  0  0  0  0
   94.8427   53.1540  268.3966 C   0  0  0  0  0  0  0  0  0  0  0  0
   94.1433   53.5318  269.5201 C   0  0  0  0  0  0  0  0  0  0  0  0
   93.1746   52.7091  270.0775 C   0  0  0  0  0  0  0  0  0  0  0  0
   92.9084   51.4788  269.4813 C   0  0  0  0  0  0  0  0  0  0  0  0
   90.2697   48.1106  266.3099 N   0  0  0  0  0  0  0  0  0  0  0  0
   89.7103   47.3327  265.2784 C   0  0  0  0  0  0  0  0  0  0  0  0
   90.4172   47.1253  264.0922 C   0  0  0  0  0  0  0  0  0  0  0  0
   89.8957   46.4495  263.0389 N   0  0  0  0  0  0  0  0  0  0  0  0
   88.6529   45.9439  263.1611 C   0  0  0  0  0  0  0  0  0  0  0  0
   87.8862   46.0847  264.3178 C   0  0  0  0  0  0  0  0  0  0  0  0
   88.4170   46.8009  265.3996 C   0  0  0  0  0  0  0  0  0  0  0  0
   87.4738   46.8803  266.9122 S   0  0  0  0  0  0  0  0  0  0  0  0
   86.1325   46.4072  266.6648 O   0  0  0  0  0  0  0  0  0  0  0  0
   87.6872   48.2303  267.4905 O   0  0  0  0  0  0  0  0  0  0  0  0
   88.3692   45.6214  267.9982 C   0  0  0  0  0  0  0  0  0  0  0  0
   94.4021   54.7489  270.1265 N   0  0  0  0  0  0  0  0  0  0  0  0
   92.2821   46.4103  266.0085 H   0  0  0  0  0  0  0  0  0  0  0  0
   91.3408   49.6182  268.1748 H   0  0  0  0  0  0  0  0  0  0  0  0
   91.7151   50.3198  266.5641 H   0  0  0  0  0  0  0  0  0  0  0  0
   97.4816   48.0946  268.0618 H   0  0  0  0  0  0  0  0  0  0  0  0
   96.7897   45.9494  267.1115 H   0  0  0  0  0  0  0  0  0  0  0  0
   94.3614   50.5987  268.9535 H   0  0  0  0  0  0  0  0  0  0  0  0
   95.1108   51.6354  266.8969 H   0  0  0  0  0  0  0  0  0  0  0  0
   95.6013   53.8054  267.9884 H   0  0  0  0  0  0  0  0  0  0  0  0
   92.6351   53.0183  270.9606 H   0  0  0  0  0  0  0  0  0  0  0  0
   92.1648   50.8246  269.9119 H   0  0  0  0  0  0  0  0  0  0  0  0
   91.4195   47.5190  264.0105 H   0  0  0  0  0  0  0  0  0  0  0  0
   88.2311   45.4051  262.3255 H   0  0  0  0  0  0  0  0  0  0  0  0
   86.8998   45.6491  264.3789 H   0  0  0  0  0  0  0  0  0  0  0  0
   87.8789   45.5702  268.9816 H   0  0  0  0  0  0  0  0  0  0  0  0
   88.3330   44.6321  267.5186 H   0  0  0  0  0  0  0  0  0  0  0  0
   89.4176   45.9283  268.1269 H   0  0  0  0  0  0  0  0  0  0  0  0
   93.8301   54.8944  270.9337 H   0  0  0  0  0  0  0  0  0  0  0  0
  1  4  1  0  0  0  0
  1  6  2  0  0  0  0
  1 11  1  0  0  0  0
  2  3  1  0  0  0  0
  2  5  2  0  0  0  0
  3  4  1  0  0  0  0
  3 17  2  3  0  0  0
  5  6  1  0  0  0  0
  5 10  1  0  0  0  0
  6  7  1  0  0  0  0
  7  8  2  0  0  0  0
  8  9  1  0  0  0  0
  9 10  2  0  0  0  0
 11 12  1  0  0  0  0
 11 16  1  0  0  0  0
 12 13  2  0  0  0  0
 13 14  1  0  0  0  0
 14 15  1  0  0  0  0
 14 28  2  0  0  0  0
 15 16  2  0  0  0  0
 17 18  1  0  0  0  0
 18 19  2  0  0  0  0
 18 23  1  0  0  0  0
 19 20  1  0  0  0  0
 20 21  2  0  0  0  0
 21 22  1  0  0  0  0
 22 23  2  0  0  0  0
 23 24  1  0  0  0  0
 24 25  2  0  0  0  0
 24 26  2  0  0  0  0
 24 27  1  0  0  0  0
  2 29  1  0  0  0  0
  4 30  1  0  0  0  0
  4 31  1  0  0  0  0
  8 32  1  0  0  0  0
  9 33  1  0  0  0  0
 11 34  1  0  0  0  0
 12 35  1  0  0  0  0
 13 36  1  0  0  0  0
 15 37  1  0  0  0  0
 16 38  1  0  0  0  0
 19 39  1  0  0  0  0
 21 40  1  0  0  0  0
 22 41  1  0  0  0  0
 27 42  1  0  0  0  0
 27 43  1  0  0  0  0
 27 44  1  0  0  0  0
 28 45  1  0  0  0  0
M  END
> <ID>
49

> <IC50[uM]>
1.528

$$$$
49
  -OEChem-05192314313D
 Structure written by MMmdl.
 45 48  0     0  0  0  0  0  0999 V2000
   93.2820   49.7787  267.6942 C   0  0  0  0  0  0  0  0  0  0  0  0
   92.5593   47.3370  266.4888 C   0  0  0  0  0  0  0  0  0  0  0  0
   91.6047   48.3296  266.6732 C   0  0  0  0  0  0  0  0  0  0  0  0
   91.9709   49.5231  267.2782 C   0  0  0  0  0  0  0  0  0  0  0  0
   93.8953   47.5304  266.9261 C   0  0  0  0  0  0  0  0  0  0  0  0
   94.2750   48.7673  267.5290 C   0  0  0  0  0  0  0  0  0  0  0  0
   95.5619   48.9626  267.9535 N   0  0  0  0  0  0  0  0  0  0  0  0
   96.4516   47.9533  267.7695 C   0  0  0  0  0  0  0  0  0  0  0  0
   96.0598   46.7392  267.2106 C   0  0  0  0  0  0  0  0  0  0  0  0
   94.7989   46.5188  266.7897 N   0  0  0  0  0  0  0  0  0  0  0  0
   93.5952   51.0844  268.3313 C   0  0  0  0  0  0  0  0  0  0  0  0
   94.5719   51.9301  267.7852 C   0  0  0  0  0  0  0  0  0  0  0  0
   94.8427   53.1540  268.3966 C   0  0  0  0  0  0  0  0  0  0  0  0
   94.1433   53.5318  269.5201 C   0  0  0  0  0  0  0  0  0  0  0  0
   93.1746   52.7091  270.0775 C   0  0  0  0  0  0  0  0  0  0  0  0
   92.9084   51.4788  269.4813 C   0  0  0  0  0  0  0  0  0  0  0  0
   90.2697   48.1106  266.3099 N   0  0  0  0  0  0  0  0  0  0  0  0
   89.7103   47.3327  265.2784 C   0  0  0  0  0  0  0  0  0  0  0  0
   90.4172   47.1253  264.0922 C   0  0  0  0  0  0  0  0  0  0  0  0
   89.8957   46.4495  263.0389 N   0  0  0  0  0  0  0  0  0  0  0  0
   88.6529   45.9439  263.1611 C   0  0  0  0  0  0  0  0  0  0  0  0
   87.8862   46.0847  264.3178 C   0  0  0  0  0  0  0  0  0  0  0  0
   88.4170   46.8009  265.3996 C   0  0  0  0  0  0  0  0  0  0  0  0
   87.4738   46.8803  266.9122 S   0  0  0  0  0  0  0  0  0  0  0  0
   86.1325   46.4072  266.6648 O   0  0  0  0  0  0  0  0  0  0  0  0
   87.6872   48.2303  267.4905 O   0  0  0  0  0  0  0  0  0  0  0  0
   88.3692   45.6214  267.9982 C   0  0  0  0  0  0  0  0  0  0  0  0
   94.4021   54.7489  270.1265 N   0  0  0  0  0  0  0  0  0  0  0  0
   92.2821   46.4103  266.0085 H   0  0  0  0  0  0  0  0  0  0  0  0
   91.3408   49.6182  268.1748 H   0  0  0  0  0  0  0  0  0  0  0  0
   91.7151   50.3198  266.5641 H   0  0  0  0  0  0  0  0  0  0  0  0
   97.4816   48.0946  268.0618 H   0  0  0  0  0  0  0  0  0  0  0  0
   96.7897   45.9494  267.1115 H   0  0  0  0  0  0  0  0  0  0  0  0
   95.1108   51.6354  266.8969 H   0  0  0  0  0  0  0  0  0  0  0  0
   95.9070   53.1416  268.6744 H   0  0  0  0  0  0  0  0  0  0  0  0
   94.6706   53.9325  267.6388 H   0  0  0  0  0  0  0  0  0  0  0  0
   92.6351   53.0183  270.9606 H   0  0  0  0  0  0  0  0  0  0  0  0
   92.1648   50.8246  269.9119 H   0  0  0  0  0  0  0  0  0  0  0  0
   91.4195   47.5190  264.0105 H   0  0  0  0  0  0  0  0  0  0  0  0
   88.2311   45.4051  262.3255 H   0  0  0  0  0  0  0  0  0  0  0  0
   86.8998   45.6491  264.3789 H   0  0  0  0  0  0  0  0  0  0  0  0
   87.8789   45.5702  268.9816 H   0  0  0  0  0  0  0  0  0  0  0  0
   88.3330   44.6321  267.5186 H   0  0  0  0  0  0  0  0  0  0  0  0
   89.4176   45.9283  268.1269 H   0  0  0  0  0  0  0  0  0  0  0  0
   93.8301   54.8944  270.9337 H   0  0  0  0  0  0  0  0  0  0  0  0
  1  4  1  0  0  0  0
  1  6  2  0  0  0  0
  1 11  1  0  0  0  0
  2  3  1  0  0  0  0
  2  5  2  0  0  0  0
  3  4  1  0  0  0  0
  3 17  2  3  0  0  0
  5  6  1  0  0  0  0
  5 10  1  0  0  0  0
  6  7  1  0  0  0  0
  7  8  2  0  0  0  0
  8  9  1  0  0  0  0
  9 10  2  0  0  0  0
 11 12  2  0  0  0  0
 11 16  1  0  0  0  0
 12 13  1  0  0  0  0
 13 14  1  0  0  0  0
 14 15  1  0  0  0  0
 14 28  2  0  0  0  0
 15 16  2  0  0  0  0
 17 18  1  0  0  0  0
 18 19  2  0  0  0  0
 18 23  1  0  0  0  0
 19 20  1  0  0  0  0
 20 21  2  0  0  0  0
 21 22  1  0  0  0  0
 22 23  2  0  0  0  0
 23 24  1  0  0  0  0
 24 25  2  0  0  0  0
 24 26  2  0  0  0  0
 24 27  1  0  0  0  0
  2 29  1  0  0  0  0
  4 30  1  0  0  0  0
  4 31  1  0  0  0  0
  8 32  1  0  0  0  0
  9 33  1  0  0  0  0
 12 34  1  0  0  0  0
 13 35  1  0  0  0  0
 13 36  1  0  0  0  0
 15 37  1  0  0  0  0
 16 38  1  0  0  0  0
 19 39  1  0  0  0  0
 21 40  1  0  0  0  0
 22 41  1  0  0  0  0
 27 42  1  0  0  0  0
 27 43  1  0  0  0  0
 27 44  1  0  0  0  0
 28 45  1  0  0  0  0
M  END
> <ID>
49

> <IC50[uM]>
1.528

$$$$
49
  -OEChem-05192314313D
 Structure written by MMmdl.
 45 48  0     1  0  0  0  0  0999 V2000
   93.2820   49.7787  267.6942 C   0  0  0  0  0  0  0  0  0  0  0  0
   92.5593   47.3370  266.4888 C   0  0  0  0  0  0  0  0  0  0  0  0
   91.6047   48.3296  266.6732 C   0  0  0  0  0  0  0  0  0  0  0  0
   91.9709   49.5231  267.2782 C   0  0  0  0  0  0  0  0  0  0  0  0
   93.8953   47.5304  266.9261 C   0  0  0  0  0  0  0  0  0  0  0  0
   94.2750   48.7673  267.5290 C   0  0  0  0  0  0  0  0  0  0  0  0
   95.5619   48.9626  267.9535 N   0  0  0  0  0  0  0  0  0  0  0  0
   96.4516   47.9533  267.7695 C   0  0  0  0  0  0  0  0  0  0  0  0
   96.0598   46.7392  267.2106 C   0  0  0  0  0  0  0  0  0  0  0  0
   94.7989   46.5188  266.7897 N   0  0  0  0  0  0  0  0  0  0  0  0
   93.5952   51.0844  268.3313 C   0  0  0  0  0  0  0  0  0  0  0  0
   94.5719   51.9301  267.7852 C   0  0  0  0  0  0  0  0  0  0  0  0
   94.8427   53.1540  268.3966 C   0  0  0  0  0  0  0  0  0  0  0  0
   94.1433   53.5318  269.5201 C   0  0  0  0  0  0  0  0  0  0  0  0
   93.1746   52.7091  270.0775 C   0  0  0  0  0  0  0  0  0  0  0  0
   92.9084   51.4788  269.4813 C   0  0  0  0  0  0  0  0  0  0  0  0
   90.2697   48.1106  266.3099 N   0  0  0  0  0  0  0  0  0  0  0  0
   89.7103   47.3327  265.2784 C   0  0  0  0  0  0  0  0  0  0  0  0
   90.4172   47.1253  264.0922 C   0  0  0  0  0  0  0  0  0  0  0  0
   89.8957   46.4495  263.0389 N   0  0  0  0  0  0  0  0  0  0  0  0
   88.6529   45.9439  263.1611 C   0  0  0  0  0  0  0  0  0  0  0  0
   87.8862   46.0847  264.3178 C   0  0  0  0  0  0  0  0  0  0  0  0
   88.4170   46.8009  265.3996 C   0  0  3  0  0  0  0  0  0  0  0  0
   87.4738   46.8803  266.9122 S   0  0  0  0  0  0  0  0  0  0  0  0
   86.1325   46.4072  266.6648 O   0  0  0  0  0  0  0  0  0  0  0  0
   87.6872   48.2303  267.4905 O   0  0  0  0  0  0  0  0  0  0  0  0
   88.3692   45.6214  267.9982 C   0  0  0  0  0  0  0  0  0  0  0  0
   94.4021   54.7489  270.1265 N   0  0  0  0  0  0  0  0  0  0  0  0
   92.2821   46.4103  266.0085 H   0  0  0  0  0  0  0  0  0  0  0  0
   91.2177   50.2813  267.4335 H   0  0  0  0  0  0  0  0  0  0  0  0
   97.4816   48.0946  268.0618 H   0  0  0  0  0  0  0  0  0  0  0  0
   96.7897   45.9494  267.1115 H   0  0  0  0  0  0  0  0  0  0  0  0
   94.3614   50.5987  268.9535 H   0  0  0  0  0  0  0  0  0  0  0  0
   95.1108   51.6354  266.8969 H   0  0  0  0  0  0  0  0  0  0  0  0
   95.6013   53.8054  267.9884 H   0  0  0  0  0  0  0  0  0  0  0  0
   92.6351   53.0183  270.9606 H   0  0  0  0  0  0  0  0  0  0  0  0
   92.1648   50.8246  269.9119 H   0  0  0  0  0  0  0  0  0  0  0  0
   91.4195   47.5190  264.0105 H   0  0  0  0  0  0  0  0  0  0  0  0
   88.2311   45.4051  262.3255 H   0  0  0  0  0  0  0  0  0  0  0  0
   86.8998   45.6491  264.3789 H   0  0  0  0  0  0  0  0  0  0  0  0
   87.9653   47.7374  265.0406 H   0  0  0  0  0  0  0  0  0  0  0  0
   87.8789   45.5702  268.9816 H   0  0  0  0  0  0  0  0  0  0  0  0
   88.3330   44.6321  267.5186 H   0  0  0  0  0  0  0  0  0  0  0  0
   89.4176   45.9283  268.1269 H   0  0  0  0  0  0  0  0  0  0  0  0
   93.8301   54.8944  270.9337 H   0  0  0  0  0  0  0  0  0  0  0  0
  1  4  2  0  0  0  0
  1  6  1  0  0  0  0
  1 11  1  0  0  0  0
  2  3  2  0  0  0  0
  2  5  1  0  0  0  0
  3  4  1  0  0  0  0
  3 17  1  0  0  0  0
  5  6  2  0  0  0  0
  5 10  1  0  0  0  0
  6  7  1  0  0  0  0
  7  8  2  0  0  0  0
  8  9  1  0  0  0  0
  9 10  2  0  0  0  0
 11 12  1  0  0  0  0
 11 16  1  0  0  0  0
 12 13  2  0  0  0  0
 13 14  1  0  0  0  0
 14 15  1  0  0  0  0
 14 28  2  0  0  0  0
 15 16  2  0  0  0  0
 17 18  2  0  0  0  0
 18 19  1  0  0  0  0
 18 23  1  0  0  0  0
 19 20  2  0  0  0  0
 20 21  1  0  0  0  0
 21 22  2  0  0  0  0
 22 23  1  0  0  0  0
 23 24  1  0  0  0  0
 24 25  2  0  0  0  0
 24 26  2  0  0  0  0
 24 27  1  0  0  0  0
  2 29  1  0  0  0  0
  4 30  1  0  0  0  0
  8 31  1  0  0  0  0
  9 32  1  0  0  0  0
 11 33  1  0  0  0  0
 12 34  1  0  0  0  0
 13 35  1  0  0  0  0
 15 36  1  0  0  0  0
 16 37  1  0  0  0  0
 19 38  1  0  0  0  0
 21 39  1  0  0  0  0
 22 40  1  0  0  0  0
 23 41  1  0  0  0  0
 27 42  1  0  0  0  0
 27 43  1  0  0  0  0
 27 44  1  0  0  0  0
 28 45  1  0  0  0  0
M  END
> <ID>
49

> <IC50[uM]>
1.528

$$$$
49
  -OEChem-05192314313D
 Structure written by MMmdl.
 45 48  0     1  0  0  0  0  0999 V2000
   93.2820   49.7787  267.6942 C   0  0  0  0  0  0  0  0  0  0  0  0
   92.5593   47.3370  266.4888 C   0  0  0  0  0  0  0  0  0  0  0  0
   91.6047   48.3296  266.6732 C   0  0  0  0  0  0  0  0  0  0  0  0
   91.9709   49.5231  267.2782 C   0  0  0  0  0  0  0  0  0  0  0  0
   93.8953   47.5304  266.9261 C   0  0  0  0  0  0  0  0  0  0  0  0
   94.2750   48.7673  267.5290 C   0  0  0  0  0  0  0  0  0  0  0  0
   95.5619   48.9626  267.9535 N   0  0  0  0  0  0  0  0  0  0  0  0
   96.4516   47.9533  267.7695 C   0  0  0  0  0  0  0  0  0  0  0  0
   96.0598   46.7392  267.2106 C   0  0  0  0  0  0  0  0  0  0  0  0
   94.7989   46.5188  266.7897 N   0  0  0  0  0  0  0  0  0  0  0  0
   93.5952   51.0844  268.3313 C   0  0  0  0  0  0  0  0  0  0  0  0
   94.5719   51.9301  267.7852 C   0  0  0  0  0  0  0  0  0  0  0  0
   94.8427   53.1540  268.3966 C   0  0  0  0  0  0  0  0  0  0  0  0
   94.1433   53.5318  269.5201 C   0  0  0  0  0  0  0  0  0  0  0  0
   93.1746   52.7091  270.0775 C   0  0  0  0  0  0  0  0  0  0  0  0
   92.9084   51.4788  269.4813 C   0  0  0  0  0  0  0  0  0  0  0  0
   90.2697   48.1106  266.3099 N   0  0  0  0  0  0  0  0  0  0  0  0
   89.7103   47.3327  265.2784 C   0  0  0  0  0  0  0  0  0  0  0  0
   90.4172   47.1253  264.0922 C   0  0  0  0  0  0  0  0  0  0  0  0
   89.8957   46.4495  263.0389 N   0  0  0  0  0  0  0  0  0  0  0  0
   88.6529   45.9439  263.1611 C   0  0  0  0  0  0  0  0  0  0  0  0
   87.8862   46.0847  264.3178 C   0  0  0  0  0  0  0  0  0  0  0  0
   88.4170   46.8009  265.3996 C   0  0  3  0  0  0  0  0  0  0  0  0
   87.4738   46.8803  266.9122 S   0  0  0  0  0  0  0  0  0  0  0  0
   86.1325   46.4072  266.6648 O   0  0  0  0  0  0  0  0  0  0  0  0
   87.6872   48.2303  267.4905 O   0  0  0  0  0  0  0  0  0  0  0  0
   88.3692   45.6214  267.9982 C   0  0  0  0  0  0  0  0  0  0  0  0
   94.4021   54.7489  270.1265 N   0  0  0  0  0  0  0  0  0  0  0  0
   92.2821   46.4103  266.0085 H   0  0  0  0  0  0  0  0  0  0  0  0
   91.2177   50.2813  267.4335 H   0  0  0  0  0  0  0  0  0  0  0  0
   97.4816   48.0946  268.0618 H   0  0  0  0  0  0  0  0  0  0  0  0
   96.7897   45.9494  267.1115 H   0  0  0  0  0  0  0  0  0  0  0  0
   95.1108   51.6354  266.8969 H   0  0  0  0  0  0  0  0  0  0  0  0
   95.9070   53.1416  268.6744 H   0  0  0  0  0  0  0  0  0  0  0  0
   94.6706   53.9325  267.6388 H   0  0  0  0  0  0  0  0  0  0  0  0
   92.6351   53.0183  270.9606 H   0  0  0  0  0  0  0  0  0  0  0  0
   92.1648   50.8246  269.9119 H   0  0  0  0  0  0  0  0  0  0  0  0
   91.4195   47.5190  264.0105 H   0  0  0  0  0  0  0  0  0  0  0  0
   88.2311   45.4051  262.3255 H   0  0  0  0  0  0  0  0  0  0  0  0
   86.8998   45.6491  264.3789 H   0  0  0  0  0  0  0  0  0  0  0  0
   87.9653   47.7374  265.0406 H   0  0  0  0  0  0  0  0  0  0  0  0
   87.8789   45.5702  268.9816 H   0  0  0  0  0  0  0  0  0  0  0  0
   88.3330   44.6321  267.5186 H   0  0  0  0  0  0  0  0  0  0  0  0
   89.4176   45.9283  268.1269 H   0  0  0  0  0  0  0  0  0  0  0  0
   93.8301   54.8944  270.9337 H   0  0  0  0  0  0  0  0  0  0  0  0
  1  4  2  0  0  0  0
  1  6  1  0  0  0  0
  1 11  1  0  0  0  0
  2  3  2  0  0  0  0
  2  5  1  0  0  0  0
  3  4  1  0  0  0  0
  3 17  1  0  0  0  0
  5  6  2  0  0  0  0
  5 10  1  0  0  0  0
  6  7  1  0  0  0  0
  7  8  2  0  0  0  0
  8  9  1  0  0  0  0
  9 10  2  0  0  0  0
 11 12  2  0  0  0  0
 11 16  1  0  0  0  0
 12 13  1  0  0  0  0
 13 14  1  0  0  0  0
 14 15  1  0  0  0  0
 14 28  2  0  0  0  0
 15 16  2  0  0  0  0
 17 18  2  0  0  0  0
 18 19  1  0  0  0  0
 18 23  1  0  0  0  0
 19 20  2  0  0  0  0
 20 21  1  0  0  0  0
 21 22  2  0  0  0  0
 22 23  1  0  0  0  0
 23 24  1  0  0  0  0
 24 25  2  0  0  0  0
 24 26  2  0  0  0  0
 24 27  1  0  0  0  0
  2 29  1  0  0  0  0
  4 30  1  0  0  0  0
  8 31  1  0  0  0  0
  9 32  1  0  0  0  0
 12 33  1  0  0  0  0
 13 34  1  0  0  0  0
 13 35  1  0  0  0  0
 15 36  1  0  0  0  0
 16 37  1  0  0  0  0
 19 38  1  0  0  0  0
 21 39  1  0  0  0  0
 22 40  1  0  0  0  0
 23 41  1  0  0  0  0
 27 42  1  0  0  0  0
 27 43  1  0  0  0  0
 27 44  1  0  0  0  0
 28 45  1  0  0  0  0
M  END
> <ID>
49

> <IC50[uM]>
1.528

$$$$
49
  -OEChem-05192314313D
 Structure written by MMmdl.
 45 48  0     0  0  0  0  0  0999 V2000
   93.2820   49.7787  267.6942 C   0  0  0  0  0  0  0  0  0  0  0  0
   92.5593   47.3370  266.4888 C   0  0  0  0  0  0  0  0  0  0  0  0
   91.6047   48.3296  266.6732 C   0  0  0  0  0  0  0  0  0  0  0  0
   91.9709   49.5231  267.2782 C   0  0  0  0  0  0  0  0  0  0  0  0
   93.8953   47.5304  266.9261 C   0  0  0  0  0  0  0  0  0  0  0  0
   94.2750   48.7673  267.5290 C   0  0  0  0  0  0  0  0  0  0  0  0
   95.5619   48.9626  267.9535 N   0  0  0  0  0  0  0  0  0  0  0  0
   96.4516   47.9533  267.7695 C   0  0  0  0  0  0  0  0  0  0  0  0
   96.0598   46.7392  267.2106 C   0  0  0  0  0  0  0  0  0  0  0  0
   94.7989   46.5188  266.7897 N   0  0  0  0  0  0  0  0  0  0  0  0
   93.5952   51.0844  268.3313 C   0  0  0  0  0  0  0  0  0  0  0  0
   94.5719   51.9301  267.7852 C   0  0  0  0  0  0  0  0  0  0  0  0
   94.8427   53.1540  268.3966 C   0  0  0  0  0  0  0  0  0  0  0  0
   94.1433   53.5318  269.5201 C   0  0  0  0  0  0  0  0  0  0  0  0
   93.1746   52.7091  270.0775 C   0  0  0  0  0  0  0  0  0  0  0  0
   92.9084   51.4788  269.4813 C   0  0  0  0  0  0  0  0  0  0  0  0
   90.2697   48.1106  266.3099 N   0  0  0  0  0  0  0  0  0  0  0  0
   89.7103   47.3327  265.2784 C   0  0  0  0  0  0  0  0  0  0  0  0
   90.4172   47.1253  264.0922 C   0  0  0  0  0  0  0  0  0  0  0  0
   89.8957   46.4495  263.0389 N   0  0  0  0  0  0  0  0  0  0  0  0
   88.6529   45.9439  263.1611 C   0  0  0  0  0  0  0  0  0  0  0  0
   87.8862   46.0847  264.3178 C   0  0  0  0  0  0  0  0  0  0  0  0
   88.4170   46.8009  265.3996 C   0  0  0  0  0  0  0  0  0  0  0  0
   87.4738   46.8803  266.9122 S   0  0  0  0  0  0  0  0  0  0  0  0
   86.1325   46.4072  266.6648 O   0  0  0  0  0  0  0  0  0  0  0  0
   87.6872   48.2303  267.4905 O   0  0  0  0  0  0  0  0  0  0  0  0
   88.3692   45.6214  267.9982 C   0  0  0  0  0  0  0  0  0  0  0  0
   94.4021   54.7489  270.1265 N   0  0  0  0  0  0  0  0  0  0  0  0
   92.2821   46.4103  266.0085 H   0  0  0  0  0  0  0  0  0  0  0  0
   91.2177   50.2813  267.4335 H   0  0  0  0  0  0  0  0  0  0  0  0
   97.4816   48.0946  268.0618 H   0  0  0  0  0  0  0  0  0  0  0  0
   96.7897   45.9494  267.1115 H   0  0  0  0  0  0  0  0  0  0  0  0
   94.3614   50.5987  268.9535 H   0  0  0  0  0  0  0  0  0  0  0  0
   95.1108   51.6354  266.8969 H   0  0  0  0  0  0  0  0  0  0  0  0
   95.6013   53.8054  267.9884 H   0  0  0  0  0  0  0  0  0  0  0  0
   92.6351   53.0183  270.9606 H   0  0  0  0  0  0  0  0  0  0  0  0
   92.1648   50.8246  269.9119 H   0  0  0  0  0  0  0  0  0  0  0  0
   91.4195   47.5190  264.0105 H   0  0  0  0  0  0  0  0  0  0  0  0
   88.0619   46.3927  262.3492 H   0  0  0  0  0  0  0  0  0  0  0  0
   88.7479   44.8614  262.9903 H   0  0  0  0  0  0  0  0  0  0  0  0
   86.8998   45.6491  264.3789 H   0  0  0  0  0  0  0  0  0  0  0  0
   87.8789   45.5702  268.9816 H   0  0  0  0  0  0  0  0  0  0  0  0
   88.3330   44.6321  267.5186 H   0  0  0  0  0  0  0  0  0  0  0  0
   89.4176   45.9283  268.1269 H   0  0  0  0  0  0  0  0  0  0  0  0
   93.8301   54.8944  270.9337 H   0  0  0  0  0  0  0  0  0  0  0  0
  1  4  2  0  0  0  0
  1  6  1  0  0  0  0
  1 11  1  0  0  0  0
  2  3  2  0  0  0  0
  2  5  1  0  0  0  0
  3  4  1  0  0  0  0
  3 17  1  0  0  0  0
  5  6  2  0  0  0  0
  5 10  1  0  0  0  0
  6  7  1  0  0  0  0
  7  8  2  0  0  0  0
  8  9  1  0  0  0  0
  9 10  2  0  0  0  0
 11 12  1  0  0  0  0
 11 16  1  0  0  0  0
 12 13  2  0  0  0  0
 13 14  1  0  0  0  0
 14 15  1  0  0  0  0
 14 28  2  0  0  0  0
 15 16  2  0  0  0  0
 17 18  2  0  0  0  0
 18 19  1  0  0  0  0
 18 23  1  0  0  0  0
 19 20  2  0  0  0  0
 20 21  1  0  0  0  0
 21 22  1  0  0  0  0
 22 23  2  0  0  0  0
 23 24  1  0  0  0  0
 24 25  2  0  0  0  0
 24 26  2  0  0  0  0
 24 27  1  0  0  0  0
  2 29  1  0  0  0  0
  4 30  1  0  0  0  0
  8 31  1  0  0  0  0
  9 32  1  0  0  0  0
 11 33  1  0  0  0  0
 12 34  1  0  0  0  0
 13 35  1  0  0  0  0
 15 36  1  0  0  0  0
 16 37  1  0  0  0  0
 19 38  1  0  0  0  0
 21 39  1  0  0  0  0
 21 40  1  0  0  0  0
 22 41  1  0  0  0  0
 27 42  1  0  0  0  0
 27 43  1  0  0  0  0
 27 44  1  0  0  0  0
 28 45  1  0  0  0  0
M  END
> <ID>
49

> <IC50[uM]>
1.528

$$$$
49
  -OEChem-05192314313D
 Structure written by MMmdl.
 45 48  0     0  0  0  0  0  0999 V2000
   93.2820   49.7787  267.6942 C   0  0  0  0  0  0  0  0  0  0  0  0
   92.5593   47.3370  266.4888 C   0  0  0  0  0  0  0  0  0  0  0  0
   91.6047   48.3296  266.6732 C   0  0  0  0  0  0  0  0  0  0  0  0
   91.9709   49.5231  267.2782 C   0  0  0  0  0  0  0  0  0  0  0  0
   93.8953   47.5304  266.9261 C   0  0  0  0  0  0  0  0  0  0  0  0
   94.2750   48.7673  267.5290 C   0  0  0  0  0  0  0  0  0  0  0  0
   95.5619   48.9626  267.9535 N   0  0  0  0  0  0  0  0  0  0  0  0
   96.4516   47.9533  267.7695 C   0  0  0  0  0  0  0  0  0  0  0  0
   96.0598   46.7392  267.2106 C   0  0  0  0  0  0  0  0  0  0  0  0
   94.7989   46.5188  266.7897 N   0  0  0  0  0  0  0  0  0  0  0  0
   93.5952   51.0844  268.3313 C   0  0  0  0  0  0  0  0  0  0  0  0
   94.5719   51.9301  267.7852 C   0  0  0  0  0  0  0  0  0  0  0  0
   94.8427   53.1540  268.3966 C   0  0  0  0  0  0  0  0  0  0  0  0
   94.1433   53.5318  269.5201 C   0  0  0  0  0  0  0  0  0  0  0  0
   93.1746   52.7091  270.0775 C   0  0  0  0  0  0  0  0  0  0  0  0
   92.9084   51.4788  269.4813 C   0  0  0  0  0  0  0  0  0  0  0  0
   90.2697   48.1106  266.3099 N   0  0  0  0  0  0  0  0  0  0  0  0
   89.7103   47.3327  265.2784 C   0  0  0  0  0  0  0  0  0  0  0  0
   90.4172   47.1253  264.0922 C   0  0  0  0  0  0  0  0  0  0  0  0
   89.8957   46.4495  263.0389 N   0  0  0  0  0  0  0  0  0  0  0  0
   88.6529   45.9439  263.1611 C   0  0  0  0  0  0  0  0  0  0  0  0
   87.8862   46.0847  264.3178 C   0  0  0  0  0  0  0  0  0  0  0  0
   88.4170   46.8009  265.3996 C   0  0  0  0  0  0  0  0  0  0  0  0
   87.4738   46.8803  266.9122 S   0  0  0  0  0  0  0  0  0  0  0  0
   86.1325   46.4072  266.6648 O   0  0  0  0  0  0  0  0  0  0  0  0
   87.6872   48.2303  267.4905 O   0  0  0  0  0  0  0  0  0  0  0  0
   88.3692   45.6214  267.9982 C   0  0  0  0  0  0  0  0  0  0  0  0
   94.4021   54.7489  270.1265 N   0  0  0  0  0  0  0  0  0  0  0  0
   92.2821   46.4103  266.0085 H   0  0  0  0  0  0  0  0  0  0  0  0
   91.2177   50.2813  267.4335 H   0  0  0  0  0  0  0  0  0  0  0  0
   97.4816   48.0946  268.0618 H   0  0  0  0  0  0  0  0  0  0  0  0
   96.7897   45.9494  267.1115 H   0  0  0  0  0  0  0  0  0  0  0  0
   95.1108   51.6354  266.8969 H   0  0  0  0  0  0  0  0  0  0  0  0
   95.9070   53.1416  268.6744 H   0  0  0  0  0  0  0  0  0  0  0  0
   94.6706   53.9325  267.6388 H   0  0  0  0  0  0  0  0  0  0  0  0
   92.6351   53.0183  270.9606 H   0  0  0  0  0  0  0  0  0  0  0  0
   92.1648   50.8246  269.9119 H   0  0  0  0  0  0  0  0  0  0  0  0
   91.4195   47.5190  264.0105 H   0  0  0  0  0  0  0  0  0  0  0  0
   88.0619   46.3927  262.3492 H   0  0  0  0  0  0  0  0  0  0  0  0
   88.7479   44.8614  262.9903 H   0  0  0  0  0  0  0  0  0  0  0  0
   86.8998   45.6491  264.3789 H   0  0  0  0  0  0  0  0  0  0  0  0
   87.8789   45.5702  268.9816 H   0  0  0  0  0  0  0  0  0  0  0  0
   88.3330   44.6321  267.5186 H   0  0  0  0  0  0  0  0  0  0  0  0
   89.4176   45.9283  268.1269 H   0  0  0  0  0  0  0  0  0  0  0  0
   93.8301   54.8944  270.9337 H   0  0  0  0  0  0  0  0  0  0  0  0
  1  4  2  0  0  0  0
  1  6  1  0  0  0  0
  1 11  1  0  0  0  0
  2  3  2  0  0  0  0
  2  5  1  0  0  0  0
  3  4  1  0  0  0  0
  3 17  1  0  0  0  0
  5  6  2  0  0  0  0
  5 10  1  0  0  0  0
  6  7  1  0  0  0  0
  7  8  2  0  0  0  0
  8  9  1  0  0  0  0
  9 10  2  0  0  0  0
 11 12  2  0  0  0  0
 11 16  1  0  0  0  0
 12 13  1  0  0  0  0
 13 14  1  0  0  0  0
 14 15  1  0  0  0  0
 14 28  2  0  0  0  0
 15 16  2  0  0  0  0
 17 18  2  0  0  0  0
 18 19  1  0  0  0  0
 18 23  1  0  0  0  0
 19 20  2  0  0  0  0
 20 21  1  0  0  0  0
 21 22  1  0  0  0  0
 22 23  2  0  0  0  0
 23 24  1  0  0  0  0
 24 25  2  0  0  0  0
 24 26  2  0  0  0  0
 24 27  1  0  0  0  0
  2 29  1  0  0  0  0
  4 30  1  0  0  0  0
  8 31  1  0  0  0  0
  9 32  1  0  0  0  0
 12 33  1  0  0  0  0
 13 34  1  0  0  0  0
 13 35  1  0  0  0  0
 15 36  1  0  0  0  0
 16 37  1  0  0  0  0
 19 38  1  0  0  0  0
 21 39  1  0  0  0  0
 21 40  1  0  0  0  0
 22 41  1  0  0  0  0
 27 42  1  0  0  0  0
 27 43  1  0  0  0  0
 27 44  1  0  0  0  0
 28 45  1  0  0  0  0
M  END
> <ID>
49

> <IC50[uM]>
1.528

$$$$
49
  -OEChem-05192314313D
 Structure written by MMmdl.
 45 48  0     0  0  0  0  0  0999 V2000
   93.2820   49.7787  267.6942 C   0  0  0  0  0  0  0  0  0  0  0  0
   92.5593   47.3370  266.4888 C   0  0  0  0  0  0  0  0  0  0  0  0
   91.6047   48.3296  266.6732 C   0  0  0  0  0  0  0  0  0  0  0  0
   91.9709   49.5231  267.2782 C   0  0  0  0  0  0  0  0  0  0  0  0
   93.8953   47.5304  266.9261 C   0  0  0  0  0  0  0  0  0  0  0  0
   94.2750   48.7673  267.5290 C   0  0  0  0  0  0  0  0  0  0  0  0
   95.5619   48.9626  267.9535 N   0  0  0  0  0  0  0  0  0  0  0  0
   96.4516   47.9533  267.7695 C   0  0  0  0  0  0  0  0  0  0  0  0
   96.0598   46.7392  267.2106 C   0  0  0  0  0  0  0  0  0  0  0  0
   94.7989   46.5188  266.7897 N   0  0  0  0  0  0  0  0  0  0  0  0
   93.5952   51.0844  268.3313 C   0  0  0  0  0  0  0  0  0  0  0  0
   94.5719   51.9301  267.7852 C   0  0  0  0  0  0  0  0  0  0  0  0
   94.8427   53.1540  268.3966 C   0  0  0  0  0  0  0  0  0  0  0  0
   94.1433   53.5318  269.5201 C   0  0  0  0  0  0  0  0  0  0  0  0
   93.1746   52.7091  270.0775 C   0  0  0  0  0  0  0  0  0  0  0  0
   92.9084   51.4788  269.4813 C   0  0  0  0  0  0  0  0  0  0  0  0
   90.2697   48.1106  266.3099 N   0  0  0  0  0  0  0  0  0  0  0  0
   89.7103   47.3327  265.2784 C   0  0  0  0  0  0  0  0  0  0  0  0
   90.4172   47.1253  264.0922 C   0  0  0  0  0  0  0  0  0  0  0  0
   89.8957   46.4495  263.0389 N   0  0  0  0  0  0  0  0  0  0  0  0
   88.6529   45.9439  263.1611 C   0  0  0  0  0  0  0  0  0  0  0  0
   87.8862   46.0847  264.3178 C   0  0  0  0  0  0  0  0  0  0  0  0
   88.4170   46.8009  265.3996 C   0  0  0  0  0  0  0  0  0  0  0  0
   87.4738   46.8803  266.9122 S   0  0  0  0  0  0  0  0  0  0  0  0
   86.1325   46.4072  266.6648 O   0  0  0  0  0  0  0  0  0  0  0  0
   87.6872   48.2303  267.4905 O   0  0  0  0  0  0  0  0  0  0  0  0
   88.3692   45.6214  267.9982 C   0  0  0  0  0  0  0  0  0  0  0  0
   94.4021   54.7489  270.1265 N   0  0  0  0  0  0  0  0  0  0  0  0
   92.2821   46.4103  266.0085 H   0  0  0  0  0  0  0  0  0  0  0  0
   91.2177   50.2813  267.4335 H   0  0  0  0  0  0  0  0  0  0  0  0
   97.4816   48.0946  268.0618 H   0  0  0  0  0  0  0  0  0  0  0  0
   96.7897   45.9494  267.1115 H   0  0  0  0  0  0  0  0  0  0  0  0
   94.3614   50.5987  268.9535 H   0  0  0  0  0  0  0  0  0  0  0  0
   95.1108   51.6354  266.8969 H   0  0  0  0  0  0  0  0  0  0  0  0
   95.6013   53.8054  267.9884 H   0  0  0  0  0  0  0  0  0  0  0  0
   92.6351   53.0183  270.9606 H   0  0  0  0  0  0  0  0  0  0  0  0
   92.1648   50.8246  269.9119 H   0  0  0  0  0  0  0  0  0  0  0  0
   90.6781   48.1248  263.7141 H   0  0  0  0  0  0  0  0  0  0  0  0
   91.3352   46.5889  264.3742 H   0  0  0  0  0  0  0  0  0  0  0  0
   88.2311   45.4051  262.3255 H   0  0  0  0  0  0  0  0  0  0  0  0
   86.8998   45.6491  264.3789 H   0  0  0  0  0  0  0  0  0  0  0  0
   87.8789   45.5702  268.9816 H   0  0  0  0  0  0  0  0  0  0  0  0
   88.3330   44.6321  267.5186 H   0  0  0  0  0  0  0  0  0  0  0  0
   89.4176   45.9283  268.1269 H   0  0  0  0  0  0  0  0  0  0  0  0
   93.8301   54.8944  270.9337 H   0  0  0  0  0  0  0  0  0  0  0  0
  1  4  2  0  0  0  0
  1  6  1  0  0  0  0
  1 11  1  0  0  0  0
  2  3  2  0  0  0  0
  2  5  1  0  0  0  0
  3  4  1  0  0  0  0
  3 17  1  0  0  0  0
  5  6  2  0  0  0  0
  5 10  1  0  0  0  0
  6  7  1  0  0  0  0
  7  8  2  0  0  0  0
  8  9  1  0  0  0  0
  9 10  2  0  0  0  0
 11 12  1  0  0  0  0
 11 16  1  0  0  0  0
 12 13  2  0  0  0  0
 13 14  1  0  0  0  0
 14 15  1  0  0  0  0
 14 28  2  0  0  0  0
 15 16  2  0  0  0  0
 17 18  2  0  0  0  0
 18 19  1  0  0  0  0
 18 23  1  0  0  0  0
 19 20  1  0  0  0  0
 20 21  2  0  0  0  0
 21 22  1  0  0  0  0
 22 23  2  0  0  0  0
 23 24  1  0  0  0  0
 24 25  2  0  0  0  0
 24 26  2  0  0  0  0
 24 27  1  0  0  0  0
  2 29  1  0  0  0  0
  4 30  1  0  0  0  0
  8 31  1  0  0  0  0
  9 32  1  0  0  0  0
 11 33  1  0  0  0  0
 12 34  1  0  0  0  0
 13 35  1  0  0  0  0
 15 36  1  0  0  0  0
 16 37  1  0  0  0  0
 19 38  1  0  0  0  0
 19 39  1  0  0  0  0
 21 40  1  0  0  0  0
 22 41  1  0  0  0  0
 27 42  1  0  0  0  0
 27 43  1  0  0  0  0
 27 44  1  0  0  0  0
 28 45  1  0  0  0  0
M  END
> <ID>
49

> <IC50[uM]>
1.528

$$$$
49
  -OEChem-05192314313D
 Structure written by MMmdl.
 45 48  0     0  0  0  0  0  0999 V2000
   93.2820   49.7787  267.6942 C   0  0  0  0  0  0  0  0  0  0  0  0
   92.5593   47.3370  266.4888 C   0  0  0  0  0  0  0  0  0  0  0  0
   91.6047   48.3296  266.6732 C   0  0  0  0  0  0  0  0  0  0  0  0
   91.9709   49.5231  267.2782 C   0  0  0  0  0  0  0  0  0  0  0  0
   93.8953   47.5304  266.9261 C   0  0  0  0  0  0  0  0  0  0  0  0
   94.2750   48.7673  267.5290 C   0  0  0  0  0  0  0  0  0  0  0  0
   95.5619   48.9626  267.9535 N   0  0  0  0  0  0  0  0  0  0  0  0
   96.4516   47.9533  267.7695 C   0  0  0  0  0  0  0  0  0  0  0  0
   96.0598   46.7392  267.2106 C   0  0  0  0  0  0  0  0  0  0  0  0
   94.7989   46.5188  266.7897 N   0  0  0  0  0  0  0  0  0  0  0  0
   93.5952   51.0844  268.3313 C   0  0  0  0  0  0  0  0  0  0  0  0
   94.5719   51.9301  267.7852 C   0  0  0  0  0  0  0  0  0  0  0  0
   94.8427   53.1540  268.3966 C   0  0  0  0  0  0  0  0  0  0  0  0
   94.1433   53.5318  269.5201 C   0  0  0  0  0  0  0  0  0  0  0  0
   93.1746   52.7091  270.0775 C   0  0  0  0  0  0  0  0  0  0  0  0
   92.9084   51.4788  269.4813 C   0  0  0  0  0  0  0  0  0  0  0  0
   90.2697   48.1106  266.3099 N   0  0  0  0  0  0  0  0  0  0  0  0
   89.7103   47.3327  265.2784 C   0  0  0  0  0  0  0  0  0  0  0  0
   90.4172   47.1253  264.0922 C   0  0  0  0  0  0  0  0  0  0  0  0
   89.8957   46.4495  263.0389 N   0  0  0  0  0  0  0  0  0  0  0  0
   88.6529   45.9439  263.1611 C   0  0  0  0  0  0  0  0  0  0  0  0
   87.8862   46.0847  264.3178 C   0  0  0  0  0  0  0  0  0  0  0  0
   88.4170   46.8009  265.3996 C   0  0  0  0  0  0  0  0  0  0  0  0
   87.4738   46.8803  266.9122 S   0  0  0  0  0  0  0  0  0  0  0  0
   86.1325   46.4072  266.6648 O   0  0  0  0  0  0  0  0  0  0  0  0
   87.6872   48.2303  267.4905 O   0  0  0  0  0  0  0  0  0  0  0  0
   88.3692   45.6214  267.9982 C   0  0  0  0  0  0  0  0  0  0  0  0
   94.4021   54.7489  270.1265 N   0  0  0  0  0  0  0  0  0  0  0  0
   92.2821   46.4103  266.0085 H   0  0  0  0  0  0  0  0  0  0  0  0
   91.2177   50.2813  267.4335 H   0  0  0  0  0  0  0  0  0  0  0  0
   97.4816   48.0946  268.0618 H   0  0  0  0  0  0  0  0  0  0  0  0
   96.7897   45.9494  267.1115 H   0  0  0  0  0  0  0  0  0  0  0  0
   95.1108   51.6354  266.8969 H   0  0  0  0  0  0  0  0  0  0  0  0
   95.9070   53.1416  268.6744 H   0  0  0  0  0  0  0  0  0  0  0  0
   94.6706   53.9325  267.6388 H   0  0  0  0  0  0  0  0  0  0  0  0
   92.6351   53.0183  270.9606 H   0  0  0  0  0  0  0  0  0  0  0  0
   92.1648   50.8246  269.9119 H   0  0  0  0  0  0  0  0  0  0  0  0
   90.6781   48.1248  263.7141 H   0  0  0  0  0  0  0  0  0  0  0  0
   91.3352   46.5889  264.3742 H   0  0  0  0  0  0  0  0  0  0  0  0
   88.2311   45.4051  262.3255 H   0  0  0  0  0  0  0  0  0  0  0  0
   86.8998   45.6491  264.3789 H   0  0  0  0  0  0  0  0  0  0  0  0
   87.8789   45.5702  268.9816 H   0  0  0  0  0  0  0  0  0  0  0  0
   88.3330   44.6321  267.5186 H   0  0  0  0  0  0  0  0  0  0  0  0
   89.4176   45.9283  268.1269 H   0  0  0  0  0  0  0  0  0  0  0  0
   93.8301   54.8944  270.9337 H   0  0  0  0  0  0  0  0  0  0  0  0
  1  4  2  0  0  0  0
  1  6  1  0  0  0  0
  1 11  1  0  0  0  0
  2  3  2  0  0  0  0
  2  5  1  0  0  0  0
  3  4  1  0  0  0  0
  3 17  1  0  0  0  0
  5  6  2  0  0  0  0
  5 10  1  0  0  0  0
  6  7  1  0  0  0  0
  7  8  2  0  0  0  0
  8  9  1  0  0  0  0
  9 10  2  0  0  0  0
 11 12  2  0  0  0  0
 11 16  1  0  0  0  0
 12 13  1  0  0  0  0
 13 14  1  0  0  0  0
 14 15  1  0  0  0  0
 14 28  2  0  0  0  0
 15 16  2  0  0  0  0
 17 18  2  0  0  0  0
 18 19  1  0  0  0  0
 18 23  1  0  0  0  0
 19 20  1  0  0  0  0
 20 21  2  0  0  0  0
 21 22  1  0  0  0  0
 22 23  2  0  0  0  0
 23 24  1  0  0  0  0
 24 25  2  0  0  0  0
 24 26  2  0  0  0  0
 24 27  1  0  0  0  0
  2 29  1  0  0  0  0
  4 30  1  0  0  0  0
  8 31  1  0  0  0  0
  9 32  1  0  0  0  0
 12 33  1  0  0  0  0
 13 34  1  0  0  0  0
 13 35  1  0  0  0  0
 15 36  1  0  0  0  0
 16 37  1  0  0  0  0
 19 38  1  0  0  0  0
 19 39  1  0  0  0  0
 21 40  1  0  0  0  0
 22 41  1  0  0  0  0
 27 42  1  0  0  0  0
 27 43  1  0  0  0  0
 27 44  1  0  0  0  0
 28 45  1  0  0  0  0
M  END
> <ID>
49

> <IC50[uM]>
1.528

$$$$
49
  -OEChem-05192314313D
 Structure written by MMmdl.
 45 48  0     1  0  0  0  0  0999 V2000
   93.2820   49.7787  267.6942 C   0  0  0  0  0  0  0  0  0  0  0  0
   92.5593   47.3370  266.4888 C   0  0  0  0  0  0  0  0  0  0  0  0
   91.6047   48.3296  266.6732 C   0  0  0  0  0  0  0  0  0  0  0  0
   91.9709   49.5231  267.2782 C   0  0  0  0  0  0  0  0  0  0  0  0
   93.8953   47.5304  266.9261 C   0  0  0  0  0  0  0  0  0  0  0  0
   94.2750   48.7673  267.5290 C   0  0  0  0  0  0  0  0  0  0  0  0
   95.5619   48.9626  267.9535 N   0  0  0  0  0  0  0  0  0  0  0  0
   96.4516   47.9533  267.7695 C   0  0  0  0  0  0  0  0  0  0  0  0
   96.0598   46.7392  267.2106 C   0  0  0  0  0  0  0  0  0  0  0  0
   94.7989   46.5188  266.7897 N   0  0  0  0  0  0  0  0  0  0  0  0
   93.5952   51.0844  268.3313 C   0  0  0  0  0  0  0  0  0  0  0  0
   94.5719   51.9301  267.7852 C   0  0  0  0  0  0  0  0  0  0  0  0
   94.8427   53.1540  268.3966 C   0  0  0  0  0  0  0  0  0  0  0  0
   94.1433   53.5318  269.5201 C   0  0  0  0  0  0  0  0  0  0  0  0
   93.1746   52.7091  270.0775 C   0  0  0  0  0  0  0  0  0  0  0  0
   92.9084   51.4788  269.4813 C   0  0  0  0  0  0  0  0  0  0  0  0
   90.2697   48.1106  266.3099 N   0  0  0  0  0  0  0  0  0  0  0  0
   89.7103   47.3327  265.2784 C   0  0  0  0  0  0  0  0  0  0  0  0
   90.4172   47.1253  264.0922 C   0  0  0  0  0  0  0  0  0  0  0  0
   89.8957   46.4495  263.0389 N   0  0  0  0  0  0  0  0  0  0  0  0
   88.6529   45.9439  263.1611 C   0  0  0  0  0  0  0  0  0  0  0  0
   87.8862   46.0847  264.3178 C   0  0  0  0  0  0  0  0  0  0  0  0
   88.4170   46.8009  265.3996 C   0  0  3  0  0  0  0  0  0  0  0  0
   87.4738   46.8803  266.9122 S   0  0  0  0  0  0  0  0  0  0  0  0
   86.1325   46.4072  266.6648 O   0  0  0  0  0  0  0  0  0  0  0  0
   87.6872   48.2303  267.4905 O   0  0  0  0  0  0  0  0  0  0  0  0
   88.3692   45.6214  267.9982 C   0  0  0  0  0  0  0  0  0  0  0  0
   94.4021   54.7489  270.1265 N   0  0  0  0  0  0  0  0  0  0  0  0
   92.2821   46.4103  266.0085 H   0  0  0  0  0  0  0  0  0  0  0  0
   91.2177   50.2813  267.4335 H   0  0  0  0  0  0  0  0  0  0  0  0
   97.2464   48.3524  267.1223 H   0  0  0  0  0  0  0  0  0  0  0  0
   96.8682   47.7203  268.7606 H   0  0  0  0  0  0  0  0  0  0  0  0
   96.7897   45.9494  267.1115 H   0  0  0  0  0  0  0  0  0  0  0  0
   95.1108   51.6354  266.8969 H   0  0  0  0  0  0  0  0  0  0  0  0
   95.6013   53.8054  267.9884 H   0  0  0  0  0  0  0  0  0  0  0  0
   92.6351   53.0183  270.9606 H   0  0  0  0  0  0  0  0  0  0  0  0
   92.1648   50.8246  269.9119 H   0  0  0  0  0  0  0  0  0  0  0  0
   91.4195   47.5190  264.0105 H   0  0  0  0  0  0  0  0  0  0  0  0
   88.2311   45.4051  262.3255 H   0  0  0  0  0  0  0  0  0  0  0  0
   86.8998   45.6491  264.3789 H   0  0  0  0  0  0  0  0  0  0  0  0
   87.9653   47.7374  265.0406 H   0  0  0  0  0  0  0  0  0  0  0  0
   87.8789   45.5702  268.9816 H   0  0  0  0  0  0  0  0  0  0  0  0
   88.3330   44.6321  267.5186 H   0  0  0  0  0  0  0  0  0  0  0  0
   89.4176   45.9283  268.1269 H   0  0  0  0  0  0  0  0  0  0  0  0
   93.8301   54.8944  270.9337 H   0  0  0  0  0  0  0  0  0  0  0  0
  1  4  1  0  0  0  0
  1  6  1  0  0  0  0
  1 11  2  0  0  0  0
  2  3  1  0  0  0  0
  2  5  2  0  0  0  0
  3  4  2  0  0  0  0
  3 17  1  0  0  0  0
  5  6  1  0  0  0  0
  5 10  1  0  0  0  0
  6  7  2  0  0  0  0
  7  8  1  0  0  0  0
  8  9  1  0  0  0  0
  9 10  2  0  0  0  0
 11 12  1  0  0  0  0
 11 16  1  0  0  0  0
 12 13  2  0  0  0  0
 13 14  1  0  0  0  0
 14 15  1  0  0  0  0
 14 28  2  0  0  0  0
 15 16  2  0  0  0  0
 17 18  2  0  0  0  0
 18 19  1  0  0  0  0
 18 23  1  0  0  0  0
 19 20  2  0  0  0  0
 20 21  1  0  0  0  0
 21 22  2  0  0  0  0
 22 23  1  0  0  0  0
 23 24  1  0  0  0  0
 24 25  2  0  0  0  0
 24 26  2  0  0  0  0
 24 27  1  0  0  0  0
  2 29  1  0  0  0  0
  4 30  1  0  0  0  0
  8 31  1  0  0  0  0
  8 32  1  0  0  0  0
  9 33  1  0  0  0  0
 12 34  1  0  0  0  0
 13 35  1  0  0  0  0
 15 36  1  0  0  0  0
 16 37  1  0  0  0  0
 19 38  1  0  0  0  0
 21 39  1  0  0  0  0
 22 40  1  0  0  0  0
 23 41  1  0  0  0  0
 27 42  1  0  0  0  0
 27 43  1  0  0  0  0
 27 44  1  0  0  0  0
 28 45  1  0  0  0  0
M  END
> <ID>
49

> <IC50[uM]>
1.528

$$$$
49
  -OEChem-05192314313D
 Structure written by MMmdl.
 45 48  0     0  0  0  0  0  0999 V2000
   93.2820   49.7787  267.6942 C   0  0  0  0  0  0  0  0  0  0  0  0
   92.5593   47.3370  266.4888 C   0  0  0  0  0  0  0  0  0  0  0  0
   91.6047   48.3296  266.6732 C   0  0  0  0  0  0  0  0  0  0  0  0
   91.9709   49.5231  267.2782 C   0  0  0  0  0  0  0  0  0  0  0  0
   93.8953   47.5304  266.9261 C   0  0  0  0  0  0  0  0  0  0  0  0
   94.2750   48.7673  267.5290 C   0  0  0  0  0  0  0  0  0  0  0  0
   95.5619   48.9626  267.9535 N   0  0  0  0  0  0  0  0  0  0  0  0
   96.4516   47.9533  267.7695 C   0  0  0  0  0  0  0  0  0  0  0  0
   96.0598   46.7392  267.2106 C   0  0  0  0  0  0  0  0  0  0  0  0
   94.7989   46.5188  266.7897 N   0  0  0  0  0  0  0  0  0  0  0  0
   93.5952   51.0844  268.3313 C   0  0  0  0  0  0  0  0  0  0  0  0
   94.5719   51.9301  267.7852 C   0  0  0  0  0  0  0  0  0  0  0  0
   94.8427   53.1540  268.3966 C   0  0  0  0  0  0  0  0  0  0  0  0
   94.1433   53.5318  269.5201 C   0  0  0  0  0  0  0  0  0  0  0  0
   93.1746   52.7091  270.0775 C   0  0  0  0  0  0  0  0  0  0  0  0
   92.9084   51.4788  269.4813 C   0  0  0  0  0  0  0  0  0  0  0  0
   90.2697   48.1106  266.3099 N   0  0  0  0  0  0  0  0  0  0  0  0
   89.7103   47.3327  265.2784 C   0  0  0  0  0  0  0  0  0  0  0  0
   90.4172   47.1253  264.0922 C   0  0  0  0  0  0  0  0  0  0  0  0
   89.8957   46.4495  263.0389 N   0  0  0  0  0  0  0  0  0  0  0  0
   88.6529   45.9439  263.1611 C   0  0  0  0  0  0  0  0  0  0  0  0
   87.8862   46.0847  264.3178 C   0  0  0  0  0  0  0  0  0  0  0  0
   88.4170   46.8009  265.3996 C   0  0  0  0  0  0  0  0  0  0  0  0
   87.4738   46.8803  266.9122 S   0  0  0  0  0  0  0  0  0  0  0  0
   86.1325   46.4072  266.6648 O   0  0  0  0  0  0  0  0  0  0  0  0
   87.6872   48.2303  267.4905 O   0  0  0  0  0  0  0  0  0  0  0  0
   88.3692   45.6214  267.9982 C   0  0  0  0  0  0  0  0  0  0  0  0
   94.4021   54.7489  270.1265 N   0  0  0  0  0  0  0  0  0  0  0  0
   92.2821   46.4103  266.0085 H   0  0  0  0  0  0  0  0  0  0  0  0
   91.2177   50.2813  267.4335 H   0  0  0  0  0  0  0  0  0  0  0  0
   97.2464   48.3524  267.1223 H   0  0  0  0  0  0  0  0  0  0  0  0
   96.8682   47.7203  268.7606 H   0  0  0  0  0  0  0  0  0  0  0  0
   96.7897   45.9494  267.1115 H   0  0  0  0  0  0  0  0  0  0  0  0
   95.1108   51.6354  266.8969 H   0  0  0  0  0  0  0  0  0  0  0  0
   95.6013   53.8054  267.9884 H   0  0  0  0  0  0  0  0  0  0  0  0
   92.6351   53.0183  270.9606 H   0  0  0  0  0  0  0  0  0  0  0  0
   92.1648   50.8246  269.9119 H   0  0  0  0  0  0  0  0  0  0  0  0
   91.4195   47.5190  264.0105 H   0  0  0  0  0  0  0  0  0  0  0  0
   88.0619   46.3927  262.3492 H   0  0  0  0  0  0  0  0  0  0  0  0
   88.7479   44.8614  262.9903 H   0  0  0  0  0  0  0  0  0  0  0  0
   86.8998   45.6491  264.3789 H   0  0  0  0  0  0  0  0  0  0  0  0
   87.8789   45.5702  268.9816 H   0  0  0  0  0  0  0  0  0  0  0  0
   88.3330   44.6321  267.5186 H   0  0  0  0  0  0  0  0  0  0  0  0
   89.4176   45.9283  268.1269 H   0  0  0  0  0  0  0  0  0  0  0  0
   93.8301   54.8944  270.9337 H   0  0  0  0  0  0  0  0  0  0  0  0
  1  4  1  0  0  0  0
  1  6  1  0  0  0  0
  1 11  2  0  0  0  0
  2  3  1  0  0  0  0
  2  5  2  0  0  0  0
  3  4  2  0  0  0  0
  3 17  1  0  0  0  0
  5  6  1  0  0  0  0
  5 10  1  0  0  0  0
  6  7  2  0  0  0  0
  7  8  1  0  0  0  0
  8  9  1  0  0  0  0
  9 10  2  0  0  0  0
 11 12  1  0  0  0  0
 11 16  1  0  0  0  0
 12 13  2  0  0  0  0
 13 14  1  0  0  0  0
 14 15  1  0  0  0  0
 14 28  2  0  0  0  0
 15 16  2  0  0  0  0
 17 18  2  0  0  0  0
 18 19  1  0  0  0  0
 18 23  1  0  0  0  0
 19 20  2  0  0  0  0
 20 21  1  0  0  0  0
 21 22  1  0  0  0  0
 22 23  2  0  0  0  0
 23 24  1  0  0  0  0
 24 25  2  0  0  0  0
 24 26  2  0  0  0  0
 24 27  1  0  0  0  0
  2 29  1  0  0  0  0
  4 30  1  0  0  0  0
  8 31  1  0  0  0  0
  8 32  1  0  0  0  0
  9 33  1  0  0  0  0
 12 34  1  0  0  0  0
 13 35  1  0  0  0  0
 15 36  1  0  0  0  0
 16 37  1  0  0  0  0
 19 38  1  0  0  0  0
 21 39  1  0  0  0  0
 21 40  1  0  0  0  0
 22 41  1  0  0  0  0
 27 42  1  0  0  0  0
 27 43  1  0  0  0  0
 27 44  1  0  0  0  0
 28 45  1  0  0  0  0
M  END
> <ID>
49

> <IC50[uM]>
1.528

$$$$
49
  -OEChem-05192314313D
 Structure written by MMmdl.
 45 48  0     0  0  0  0  0  0999 V2000
   93.2820   49.7787  267.6942 C   0  0  0  0  0  0  0  0  0  0  0  0
   92.5593   47.3370  266.4888 C   0  0  0  0  0  0  0  0  0  0  0  0
   91.6047   48.3296  266.6732 C   0  0  0  0  0  0  0  0  0  0  0  0
   91.9709   49.5231  267.2782 C   0  0  0  0  0  0  0  0  0  0  0  0
   93.8953   47.5304  266.9261 C   0  0  0  0  0  0  0  0  0  0  0  0
   94.2750   48.7673  267.5290 C   0  0  0  0  0  0  0  0  0  0  0  0
   95.5619   48.9626  267.9535 N   0  0  0  0  0  0  0  0  0  0  0  0
   96.4516   47.9533  267.7695 C   0  0  0  0  0  0  0  0  0  0  0  0
   96.0598   46.7392  267.2106 C   0  0  0  0  0  0  0  0  0  0  0  0
   94.7989   46.5188  266.7897 N   0  0  0  0  0  0  0  0  0  0  0  0
   93.5952   51.0844  268.3313 C   0  0  0  0  0  0  0  0  0  0  0  0
   94.5719   51.9301  267.7852 C   0  0  0  0  0  0  0  0  0  0  0  0
   94.8427   53.1540  268.3966 C   0  0  0  0  0  0  0  0  0  0  0  0
   94.1433   53.5318  269.5201 C   0  0  0  0  0  0  0  0  0  0  0  0
   93.1746   52.7091  270.0775 C   0  0  0  0  0  0  0  0  0  0  0  0
   92.9084   51.4788  269.4813 C   0  0  0  0  0  0  0  0  0  0  0  0
   90.2697   48.1106  266.3099 N   0  0  0  0  0  0  0  0  0  0  0  0
   89.7103   47.3327  265.2784 C   0  0  0  0  0  0  0  0  0  0  0  0
   90.4172   47.1253  264.0922 C   0  0  0  0  0  0  0  0  0  0  0  0
   89.8957   46.4495  263.0389 N   0  0  0  0  0  0  0  0  0  0  0  0
   88.6529   45.9439  263.1611 C   0  0  0  0  0  0  0  0  0  0  0  0
   87.8862   46.0847  264.3178 C   0  0  0  0  0  0  0  0  0  0  0  0
   88.4170   46.8009  265.3996 C   0  0  0  0  0  0  0  0  0  0  0  0
   87.4738   46.8803  266.9122 S   0  0  0  0  0  0  0  0  0  0  0  0
   86.1325   46.4072  266.6648 O   0  0  0  0  0  0  0  0  0  0  0  0
   87.6872   48.2303  267.4905 O   0  0  0  0  0  0  0  0  0  0  0  0
   88.3692   45.6214  267.9982 C   0  0  0  0  0  0  0  0  0  0  0  0
   94.4021   54.7489  270.1265 N   0  0  0  0  0  0  0  0  0  0  0  0
   92.2821   46.4103  266.0085 H   0  0  0  0  0  0  0  0  0  0  0  0
   91.2177   50.2813  267.4335 H   0  0  0  0  0  0  0  0  0  0  0  0
   97.2464   48.3524  267.1223 H   0  0  0  0  0  0  0  0  0  0  0  0
   96.8682   47.7203  268.7606 H   0  0  0  0  0  0  0  0  0  0  0  0
   96.7897   45.9494  267.1115 H   0  0  0  0  0  0  0  0  0  0  0  0
   95.1108   51.6354  266.8969 H   0  0  0  0  0  0  0  0  0  0  0  0
   95.6013   53.8054  267.9884 H   0  0  0  0  0  0  0  0  0  0  0  0
   92.6351   53.0183  270.9606 H   0  0  0  0  0  0  0  0  0  0  0  0
   92.1648   50.8246  269.9119 H   0  0  0  0  0  0  0  0  0  0  0  0
   90.6781   48.1248  263.7141 H   0  0  0  0  0  0  0  0  0  0  0  0
   91.3352   46.5889  264.3742 H   0  0  0  0  0  0  0  0  0  0  0  0
   88.2311   45.4051  262.3255 H   0  0  0  0  0  0  0  0  0  0  0  0
   86.8998   45.6491  264.3789 H   0  0  0  0  0  0  0  0  0  0  0  0
   87.8789   45.5702  268.9816 H   0  0  0  0  0  0  0  0  0  0  0  0
   88.3330   44.6321  267.5186 H   0  0  0  0  0  0  0  0  0  0  0  0
   89.4176   45.9283  268.1269 H   0  0  0  0  0  0  0  0  0  0  0  0
   93.8301   54.8944  270.9337 H   0  0  0  0  0  0  0  0  0  0  0  0
  1  4  1  0  0  0  0
  1  6  1  0  0  0  0
  1 11  2  0  0  0  0
  2  3  1  0  0  0  0
  2  5  2  0  0  0  0
  3  4  2  0  0  0  0
  3 17  1  0  0  0  0
  5  6  1  0  0  0  0
  5 10  1  0  0  0  0
  6  7  2  0  0  0  0
  7  8  1  0  0  0  0
  8  9  1  0  0  0  0
  9 10  2  0  0  0  0
 11 12  1  0  0  0  0
 11 16  1  0  0  0  0
 12 13  2  0  0  0  0
 13 14  1  0  0  0  0
 14 15  1  0  0  0  0
 14 28  2  0  0  0  0
 15 16  2  0  0  0  0
 17 18  2  0  0  0  0
 18 19  1  0  0  0  0
 18 23  1  0  0  0  0
 19 20  1  0  0  0  0
 20 21  2  0  0  0  0
 21 22  1  0  0  0  0
 22 23  2  0  0  0  0
 23 24  1  0  0  0  0
 24 25  2  0  0  0  0
 24 26  2  0  0  0  0
 24 27  1  0  0  0  0
  2 29  1  0  0  0  0
  4 30  1  0  0  0  0
  8 31  1  0  0  0  0
  8 32  1  0  0  0  0
  9 33  1  0  0  0  0
 12 34  1  0  0  0  0
 13 35  1  0  0  0  0
 15 36  1  0  0  0  0
 16 37  1  0  0  0  0
 19 38  1  0  0  0  0
 19 39  1  0  0  0  0
 21 40  1  0  0  0  0
 22 41  1  0  0  0  0
 27 42  1  0  0  0  0
 27 43  1  0  0  0  0
 27 44  1  0  0  0  0
 28 45  1  0  0  0  0
M  END
> <ID>
49

> <IC50[uM]>
1.528

$$$$
49
  -OEChem-05192314313D
 Structure written by MMmdl.
 45 48  0     1  0  0  0  0  0999 V2000
   93.2820   49.7787  267.6942 C   0  0  0  0  0  0  0  0  0  0  0  0
   92.5593   47.3370  266.4888 C   0  0  0  0  0  0  0  0  0  0  0  0
   91.6047   48.3296  266.6732 C   0  0  0  0  0  0  0  0  0  0  0  0
   91.9709   49.5231  267.2782 C   0  0  0  0  0  0  0  0  0  0  0  0
   93.8953   47.5304  266.9261 C   0  0  0  0  0  0  0  0  0  0  0  0
   94.2750   48.7673  267.5290 C   0  0  0  0  0  0  0  0  0  0  0  0
   95.5619   48.9626  267.9535 N   0  0  0  0  0  0  0  0  0  0  0  0
   96.4516   47.9533  267.7695 C   0  0  0  0  0  0  0  0  0  0  0  0
   96.0598   46.7392  267.2106 C   0  0  0  0  0  0  0  0  0  0  0  0
   94.7989   46.5188  266.7897 N   0  0  0  0  0  0  0  0  0  0  0  0
   93.5952   51.0844  268.3313 C   0  0  0  0  0  0  0  0  0  0  0  0
   94.5719   51.9301  267.7852 C   0  0  0  0  0  0  0  0  0  0  0  0
   94.8427   53.1540  268.3966 C   0  0  0  0  0  0  0  0  0  0  0  0
   94.1433   53.5318  269.5201 C   0  0  0  0  0  0  0  0  0  0  0  0
   93.1746   52.7091  270.0775 C   0  0  0  0  0  0  0  0  0  0  0  0
   92.9084   51.4788  269.4813 C   0  0  0  0  0  0  0  0  0  0  0  0
   90.2697   48.1106  266.3099 N   0  0  0  0  0  0  0  0  0  0  0  0
   89.7103   47.3327  265.2784 C   0  0  0  0  0  0  0  0  0  0  0  0
   90.4172   47.1253  264.0922 C   0  0  0  0  0  0  0  0  0  0  0  0
   89.8957   46.4495  263.0389 N   0  0  0  0  0  0  0  0  0  0  0  0
   88.6529   45.9439  263.1611 C   0  0  0  0  0  0  0  0  0  0  0  0
   87.8862   46.0847  264.3178 C   0  0  0  0  0  0  0  0  0  0  0  0
   88.4170   46.8009  265.3996 C   0  0  3  0  0  0  0  0  0  0  0  0
   87.4738   46.8803  266.9122 S   0  0  0  0  0  0  0  0  0  0  0  0
   86.1325   46.4072  266.6648 O   0  0  0  0  0  0  0  0  0  0  0  0
   87.6872   48.2303  267.4905 O   0  0  0  0  0  0  0  0  0  0  0  0
   88.3692   45.6214  267.9982 C   0  0  0  0  0  0  0  0  0  0  0  0
   94.4021   54.7489  270.1265 N   0  0  0  0  0  0  0  0  0  0  0  0
   92.2821   46.4103  266.0085 H   0  0  0  0  0  0  0  0  0  0  0  0
   91.2177   50.2813  267.4335 H   0  0  0  0  0  0  0  0  0  0  0  0
   97.4816   48.0946  268.0618 H   0  0  0  0  0  0  0  0  0  0  0  0
   96.7897   45.9494  267.1115 H   0  0  0  0  0  0  0  0  0  0  0  0
   94.5344   45.6411  266.3900 H   0  0  0  0  0  0  0  0  0  0  0  0
   95.1108   51.6354  266.8969 H   0  0  0  0  0  0  0  0  0  0  0  0
   95.6013   53.8054  267.9884 H   0  0  0  0  0  0  0  0  0  0  0  0
   92.6351   53.0183  270.9606 H   0  0  0  0  0  0  0  0  0  0  0  0
   92.1648   50.8246  269.9119 H   0  0  0  0  0  0  0  0  0  0  0  0
   91.4195   47.5190  264.0105 H   0  0  0  0  0  0  0  0  0  0  0  0
   88.2311   45.4051  262.3255 H   0  0  0  0  0  0  0  0  0  0  0  0
   86.8998   45.6491  264.3789 H   0  0  0  0  0  0  0  0  0  0  0  0
   87.9653   47.7374  265.0406 H   0  0  0  0  0  0  0  0  0  0  0  0
   87.8789   45.5702  268.9816 H   0  0  0  0  0  0  0  0  0  0  0  0
   88.3330   44.6321  267.5186 H   0  0  0  0  0  0  0  0  0  0  0  0
   89.4176   45.9283  268.1269 H   0  0  0  0  0  0  0  0  0  0  0  0
   93.8301   54.8944  270.9337 H   0  0  0  0  0  0  0  0  0  0  0  0
  1  4  1  0  0  0  0
  1  6  1  0  0  0  0
  1 11  2  0  0  0  0
  2  3  1  0  0  0  0
  2  5  2  0  0  0  0
  3  4  2  0  0  0  0
  3 17  1  0  0  0  0
  5  6  1  0  0  0  0
  5 10  1  0  0  0  0
  6  7  2  0  0  0  0
  7  8  1  0  0  0  0
  8  9  2  0  0  0  0
  9 10  1  0  0  0  0
 11 12  1  0  0  0  0
 11 16  1  0  0  0  0
 12 13  2  0  0  0  0
 13 14  1  0  0  0  0
 14 15  1  0  0  0  0
 14 28  2  0  0  0  0
 15 16  2  0  0  0  0
 17 18  2  0  0  0  0
 18 19  1  0  0  0  0
 18 23  1  0  0  0  0
 19 20  2  0  0  0  0
 20 21  1  0  0  0  0
 21 22  2  0  0  0  0
 22 23  1  0  0  0  0
 23 24  1  0  0  0  0
 24 25  2  0  0  0  0
 24 26  2  0  0  0  0
 24 27  1  0  0  0  0
  2 29  1  0  0  0  0
  4 30  1  0  0  0  0
  8 31  1  0  0  0  0
  9 32  1  0  0  0  0
 10 33  1  0  0  0  0
 12 34  1  0  0  0  0
 13 35  1  0  0  0  0
 15 36  1  0  0  0  0
 16 37  1  0  0  0  0
 19 38  1  0  0  0  0
 21 39  1  0  0  0  0
 22 40  1  0  0  0  0
 23 41  1  0  0  0  0
 27 42  1  0  0  0  0
 27 43  1  0  0  0  0
 27 44  1  0  0  0  0
 28 45  1  0  0  0  0
M  END
> <ID>
49

> <IC50[uM]>
1.528

$$$$
49
  -OEChem-05192314313D
 Structure written by MMmdl.
 45 48  0     0  0  0  0  0  0999 V2000
   93.2820   49.7787  267.6942 C   0  0  0  0  0  0  0  0  0  0  0  0
   92.5593   47.3370  266.4888 C   0  0  0  0  0  0  0  0  0  0  0  0
   91.6047   48.3296  266.6732 C   0  0  0  0  0  0  0  0  0  0  0  0
   91.9709   49.5231  267.2782 C   0  0  0  0  0  0  0  0  0  0  0  0
   93.8953   47.5304  266.9261 C   0  0  0  0  0  0  0  0  0  0  0  0
   94.2750   48.7673  267.5290 C   0  0  0  0  0  0  0  0  0  0  0  0
   95.5619   48.9626  267.9535 N   0  0  0  0  0  0  0  0  0  0  0  0
   96.4516   47.9533  267.7695 C   0  0  0  0  0  0  0  0  0  0  0  0
   96.0598   46.7392  267.2106 C   0  0  0  0  0  0  0  0  0  0  0  0
   94.7989   46.5188  266.7897 N   0  0  0  0  0  0  0  0  0  0  0  0
   93.5952   51.0844  268.3313 C   0  0  0  0  0  0  0  0  0  0  0  0
   94.5719   51.9301  267.7852 C   0  0  0  0  0  0  0  0  0  0  0  0
   94.8427   53.1540  268.3966 C   0  0  0  0  0  0  0  0  0  0  0  0
   94.1433   53.5318  269.5201 C   0  0  0  0  0  0  0  0  0  0  0  0
   93.1746   52.7091  270.0775 C   0  0  0  0  0  0  0  0  0  0  0  0
   92.9084   51.4788  269.4813 C   0  0  0  0  0  0  0  0  0  0  0  0
   90.2697   48.1106  266.3099 N   0  0  0  0  0  0  0  0  0  0  0  0
   89.7103   47.3327  265.2784 C   0  0  0  0  0  0  0  0  0  0  0  0
   90.4172   47.1253  264.0922 C   0  0  0  0  0  0  0  0  0  0  0  0
   89.8957   46.4495  263.0389 N   0  0  0  0  0  0  0  0  0  0  0  0
   88.6529   45.9439  263.1611 C   0  0  0  0  0  0  0  0  0  0  0  0
   87.8862   46.0847  264.3178 C   0  0  0  0  0  0  0  0  0  0  0  0
   88.4170   46.8009  265.3996 C   0  0  0  0  0  0  0  0  0  0  0  0
   87.4738   46.8803  266.9122 S   0  0  0  0  0  0  0  0  0  0  0  0
   86.1325   46.4072  266.6648 O   0  0  0  0  0  0  0  0  0  0  0  0
   87.6872   48.2303  267.4905 O   0  0  0  0  0  0  0  0  0  0  0  0
   88.3692   45.6214  267.9982 C   0  0  0  0  0  0  0  0  0  0  0  0
   94.4021   54.7489  270.1265 N   0  0  0  0  0  0  0  0  0  0  0  0
   92.2821   46.4103  266.0085 H   0  0  0  0  0  0  0  0  0  0  0  0
   91.2177   50.2813  267.4335 H   0  0  0  0  0  0  0  0  0  0  0  0
   97.4816   48.0946  268.0618 H   0  0  0  0  0  0  0  0  0  0  0  0
   96.7897   45.9494  267.1115 H   0  0  0  0  0  0  0  0  0  0  0  0
   94.5344   45.6411  266.3900 H   0  0  0  0  0  0  0  0  0  0  0  0
   95.1108   51.6354  266.8969 H   0  0  0  0  0  0  0  0  0  0  0  0
   95.6013   53.8054  267.9884 H   0  0  0  0  0  0  0  0  0  0  0  0
   92.6351   53.0183  270.9606 H   0  0  0  0  0  0  0  0  0  0  0  0
   92.1648   50.8246  269.9119 H   0  0  0  0  0  0  0  0  0  0  0  0
   91.4195   47.5190  264.0105 H   0  0  0  0  0  0  0  0  0  0  0  0
   88.0619   46.3927  262.3492 H   0  0  0  0  0  0  0  0  0  0  0  0
   88.7479   44.8614  262.9903 H   0  0  0  0  0  0  0  0  0  0  0  0
   86.8998   45.6491  264.3789 H   0  0  0  0  0  0  0  0  0  0  0  0
   87.8789   45.5702  268.9816 H   0  0  0  0  0  0  0  0  0  0  0  0
   88.3330   44.6321  267.5186 H   0  0  0  0  0  0  0  0  0  0  0  0
   89.4176   45.9283  268.1269 H   0  0  0  0  0  0  0  0  0  0  0  0
   93.8301   54.8944  270.9337 H   0  0  0  0  0  0  0  0  0  0  0  0
  1  4  1  0  0  0  0
  1  6  1  0  0  0  0
  1 11  2  0  0  0  0
  2  3  1  0  0  0  0
  2  5  2  0  0  0  0
  3  4  2  0  0  0  0
  3 17  1  0  0  0  0
  5  6  1  0  0  0  0
  5 10  1  0  0  0  0
  6  7  2  0  0  0  0
  7  8  1  0  0  0  0
  8  9  2  0  0  0  0
  9 10  1  0  0  0  0
 11 12  1  0  0  0  0
 11 16  1  0  0  0  0
 12 13  2  0  0  0  0
 13 14  1  0  0  0  0
 14 15  1  0  0  0  0
 14 28  2  0  0  0  0
 15 16  2  0  0  0  0
 17 18  2  0  0  0  0
 18 19  1  0  0  0  0
 18 23  1  0  0  0  0
 19 20  2  0  0  0  0
 20 21  1  0  0  0  0
 21 22  1  0  0  0  0
 22 23  2  0  0  0  0
 23 24  1  0  0  0  0
 24 25  2  0  0  0  0
 24 26  2  0  0  0  0
 24 27  1  0  0  0  0
  2 29  1  0  0  0  0
  4 30  1  0  0  0  0
  8 31  1  0  0  0  0
  9 32  1  0  0  0  0
 10 33  1  0  0  0  0
 12 34  1  0  0  0  0
 13 35  1  0  0  0  0
 15 36  1  0  0  0  0
 16 37  1  0  0  0  0
 19 38  1  0  0  0  0
 21 39  1  0  0  0  0
 21 40  1  0  0  0  0
 22 41  1  0  0  0  0
 27 42  1  0  0  0  0
 27 43  1  0  0  0  0
 27 44  1  0  0  0  0
 28 45  1  0  0  0  0
M  END
> <ID>
49

> <IC50[uM]>
1.528

$$$$
49
  -OEChem-05192314313D
 Structure written by MMmdl.
 45 48  0     0  0  0  0  0  0999 V2000
   93.2820   49.7787  267.6942 C   0  0  0  0  0  0  0  0  0  0  0  0
   92.5593   47.3370  266.4888 C   0  0  0  0  0  0  0  0  0  0  0  0
   91.6047   48.3296  266.6732 C   0  0  0  0  0  0  0  0  0  0  0  0
   91.9709   49.5231  267.2782 C   0  0  0  0  0  0  0  0  0  0  0  0
   93.8953   47.5304  266.9261 C   0  0  0  0  0  0  0  0  0  0  0  0
   94.2750   48.7673  267.5290 C   0  0  0  0  0  0  0  0  0  0  0  0
   95.5619   48.9626  267.9535 N   0  0  0  0  0  0  0  0  0  0  0  0
   96.4516   47.9533  267.7695 C   0  0  0  0  0  0  0  0  0  0  0  0
   96.0598   46.7392  267.2106 C   0  0  0  0  0  0  0  0  0  0  0  0
   94.7989   46.5188  266.7897 N   0  0  0  0  0  0  0  0  0  0  0  0
   93.5952   51.0844  268.3313 C   0  0  0  0  0  0  0  0  0  0  0  0
   94.5719   51.9301  267.7852 C   0  0  0  0  0  0  0  0  0  0  0  0
   94.8427   53.1540  268.3966 C   0  0  0  0  0  0  0  0  0  0  0  0
   94.1433   53.5318  269.5201 C   0  0  0  0  0  0  0  0  0  0  0  0
   93.1746   52.7091  270.0775 C   0  0  0  0  0  0  0  0  0  0  0  0
   92.9084   51.4788  269.4813 C   0  0  0  0  0  0  0  0  0  0  0  0
   90.2697   48.1106  266.3099 N   0  0  0  0  0  0  0  0  0  0  0  0
   89.7103   47.3327  265.2784 C   0  0  0  0  0  0  0  0  0  0  0  0
   90.4172   47.1253  264.0922 C   0  0  0  0  0  0  0  0  0  0  0  0
   89.8957   46.4495  263.0389 N   0  0  0  0  0  0  0  0  0  0  0  0
   88.6529   45.9439  263.1611 C   0  0  0  0  0  0  0  0  0  0  0  0
   87.8862   46.0847  264.3178 C   0  0  0  0  0  0  0  0  0  0  0  0
   88.4170   46.8009  265.3996 C   0  0  0  0  0  0  0  0  0  0  0  0
   87.4738   46.8803  266.9122 S   0  0  0  0  0  0  0  0  0  0  0  0
   86.1325   46.4072  266.6648 O   0  0  0  0  0  0  0  0  0  0  0  0
   87.6872   48.2303  267.4905 O   0  0  0  0  0  0  0  0  0  0  0  0
   88.3692   45.6214  267.9982 C   0  0  0  0  0  0  0  0  0  0  0  0
   94.4021   54.7489  270.1265 N   0  0  0  0  0  0  0  0  0  0  0  0
   92.2821   46.4103  266.0085 H   0  0  0  0  0  0  0  0  0  0  0  0
   91.2177   50.2813  267.4335 H   0  0  0  0  0  0  0  0  0  0  0  0
   97.4816   48.0946  268.0618 H   0  0  0  0  0  0  0  0  0  0  0  0
   96.7897   45.9494  267.1115 H   0  0  0  0  0  0  0  0  0  0  0  0
   94.5344   45.6411  266.3900 H   0  0  0  0  0  0  0  0  0  0  0  0
   95.1108   51.6354  266.8969 H   0  0  0  0  0  0  0  0  0  0  0  0
   95.6013   53.8054  267.9884 H   0  0  0  0  0  0  0  0  0  0  0  0
   92.6351   53.0183  270.9606 H   0  0  0  0  0  0  0  0  0  0  0  0
   92.1648   50.8246  269.9119 H   0  0  0  0  0  0  0  0  0  0  0  0
   90.6781   48.1248  263.7141 H   0  0  0  0  0  0  0  0  0  0  0  0
   91.3352   46.5889  264.3742 H   0  0  0  0  0  0  0  0  0  0  0  0
   88.2311   45.4051  262.3255 H   0  0  0  0  0  0  0  0  0  0  0  0
   86.8998   45.6491  264.3789 H   0  0  0  0  0  0  0  0  0  0  0  0
   87.8789   45.5702  268.9816 H   0  0  0  0  0  0  0  0  0  0  0  0
   88.3330   44.6321  267.5186 H   0  0  0  0  0  0  0  0  0  0  0  0
   89.4176   45.9283  268.1269 H   0  0  0  0  0  0  0  0  0  0  0  0
   93.8301   54.8944  270.9337 H   0  0  0  0  0  0  0  0  0  0  0  0
  1  4  1  0  0  0  0
  1  6  1  0  0  0  0
  1 11  2  0  0  0  0
  2  3  1  0  0  0  0
  2  5  2  0  0  0  0
  3  4  2  0  0  0  0
  3 17  1  0  0  0  0
  5  6  1  0  0  0  0
  5 10  1  0  0  0  0
  6  7  2  0  0  0  0
  7  8  1  0  0  0  0
  8  9  2  0  0  0  0
  9 10  1  0  0  0  0
 11 12  1  0  0  0  0
 11 16  1  0  0  0  0
 12 13  2  0  0  0  0
 13 14  1  0  0  0  0
 14 15  1  0  0  0  0
 14 28  2  0  0  0  0
 15 16  2  0  0  0  0
 17 18  2  0  0  0  0
 18 19  1  0  0  0  0
 18 23  1  0  0  0  0
 19 20  1  0  0  0  0
 20 21  2  0  0  0  0
 21 22  1  0  0  0  0
 22 23  2  0  0  0  0
 23 24  1  0  0  0  0
 24 25  2  0  0  0  0
 24 26  2  0  0  0  0
 24 27  1  0  0  0  0
  2 29  1  0  0  0  0
  4 30  1  0  0  0  0
  8 31  1  0  0  0  0
  9 32  1  0  0  0  0
 10 33  1  0  0  0  0
 12 34  1  0  0  0  0
 13 35  1  0  0  0  0
 15 36  1  0  0  0  0
 16 37  1  0  0  0  0
 19 38  1  0  0  0  0
 19 39  1  0  0  0  0
 21 40  1  0  0  0  0
 22 41  1  0  0  0  0
 27 42  1  0  0  0  0
 27 43  1  0  0  0  0
 27 44  1  0  0  0  0
 28 45  1  0  0  0  0
M  END
> <ID>
49

> <IC50[uM]>
1.528

$$$$
49
  -OEChem-05192314313D
 Structure written by MMmdl.
 45 48  0     1  0  0  0  0  0999 V2000
   93.2820   49.7787  267.6942 C   0  0  0  0  0  0  0  0  0  0  0  0
   92.5593   47.3370  266.4888 C   0  0  0  0  0  0  0  0  0  0  0  0
   91.6047   48.3296  266.6732 C   0  0  0  0  0  0  0  0  0  0  0  0
   91.9709   49.5231  267.2782 C   0  0  0  0  0  0  0  0  0  0  0  0
   93.8953   47.5304  266.9261 C   0  0  0  0  0  0  0  0  0  0  0  0
   94.2750   48.7673  267.5290 C   0  0  3  0  0  0  0  0  0  0  0  0
   95.5619   48.9626  267.9535 N   0  0  0  0  0  0  0  0  0  0  0  0
   96.4516   47.9533  267.7695 C   0  0  0  0  0  0  0  0  0  0  0  0
   96.0598   46.7392  267.2106 C   0  0  0  0  0  0  0  0  0  0  0  0
   94.7989   46.5188  266.7897 N   0  0  0  0  0  0  0  0  0  0  0  0
   93.5952   51.0844  268.3313 C   0  0  0  0  0  0  0  0  0  0  0  0
   94.5719   51.9301  267.7852 C   0  0  0  0  0  0  0  0  0  0  0  0
   94.8427   53.1540  268.3966 C   0  0  0  0  0  0  0  0  0  0  0  0
   94.1433   53.5318  269.5201 C   0  0  0  0  0  0  0  0  0  0  0  0
   93.1746   52.7091  270.0775 C   0  0  0  0  0  0  0  0  0  0  0  0
   92.9084   51.4788  269.4813 C   0  0  0  0  0  0  0  0  0  0  0  0
   90.2697   48.1106  266.3099 N   0  0  0  0  0  0  0  0  0  0  0  0
   89.7103   47.3327  265.2784 C   0  0  0  0  0  0  0  0  0  0  0  0
   90.4172   47.1253  264.0922 C   0  0  0  0  0  0  0  0  0  0  0  0
   89.8957   46.4495  263.0389 N   0  0  0  0  0  0  0  0  0  0  0  0
   88.6529   45.9439  263.1611 C   0  0  0  0  0  0  0  0  0  0  0  0
   87.8862   46.0847  264.3178 C   0  0  0  0  0  0  0  0  0  0  0  0
   88.4170   46.8009  265.3996 C   0  0  0  0  0  0  0  0  0  0  0  0
   87.4738   46.8803  266.9122 S   0  0  0  0  0  0  0  0  0  0  0  0
   86.1325   46.4072  266.6648 O   0  0  0  0  0  0  0  0  0  0  0  0
   87.6872   48.2303  267.4905 O   0  0  0  0  0  0  0  0  0  0  0  0
   88.3692   45.6214  267.9982 C   0  0  0  0  0  0  0  0  0  0  0  0
   94.4021   54.7489  270.1265 N   0  0  0  0  0  0  0  0  0  0  0  0
   92.2821   46.4103  266.0085 H   0  0  0  0  0  0  0  0  0  0  0  0
   91.2177   50.2813  267.4335 H   0  0  0  0  0  0  0  0  0  0  0  0
   94.5335   49.1754  266.5407 H   0  0  0  0  0  0  0  0  0  0  0  0
   97.4816   48.0946  268.0618 H   0  0  0  0  0  0  0  0  0  0  0  0
   96.7897   45.9494  267.1115 H   0  0  0  0  0  0  0  0  0  0  0  0
   94.3614   50.5987  268.9535 H   0  0  0  0  0  0  0  0  0  0  0  0
   95.1108   51.6354  266.8969 H   0  0  0  0  0  0  0  0  0  0  0  0
   95.6013   53.8054  267.9884 H   0  0  0  0  0  0  0  0  0  0  0  0
   92.6351   53.0183  270.9606 H   0  0  0  0  0  0  0  0  0  0  0  0
   92.1648   50.8246  269.9119 H   0  0  0  0  0  0  0  0  0  0  0  0
   91.4195   47.5190  264.0105 H   0  0  0  0  0  0  0  0  0  0  0  0
   88.2311   45.4051  262.3255 H   0  0  0  0  0  0  0  0  0  0  0  0
   86.8998   45.6491  264.3789 H   0  0  0  0  0  0  0  0  0  0  0  0
   87.8789   45.5702  268.9816 H   0  0  0  0  0  0  0  0  0  0  0  0
   88.3330   44.6321  267.5186 H   0  0  0  0  0  0  0  0  0  0  0  0
   89.4176   45.9283  268.1269 H   0  0  0  0  0  0  0  0  0  0  0  0
   93.8301   54.8944  270.9337 H   0  0  0  0  0  0  0  0  0  0  0  0
  1  4  2  0  0  0  0
  1  6  1  0  0  0  0
  1 11  1  0  0  0  0
  2  3  1  0  0  0  0
  2  5  2  0  0  0  0
  3  4  1  0  0  0  0
  3 17  2  3  0  0  0
  5  6  1  0  0  0  0
  5 10  1  0  0  0  0
  6  7  1  0  0  0  0
  7  8  2  0  0  0  0
  8  9  1  0  0  0  0
  9 10  2  0  0  0  0
 11 12  1  0  0  0  0
 11 16  1  0  0  0  0
 12 13  2  0  0  0  0
 13 14  1  0  0  0  0
 14 15  1  0  0  0  0
 14 28  2  0  0  0  0
 15 16  2  0  0  0  0
 17 18  1  0  0  0  0
 18 19  2  0  0  0  0
 18 23  1  0  0  0  0
 19 20  1  0  0  0  0
 20 21  2  0  0  0  0
 21 22  1  0  0  0  0
 22 23  2  0  0  0  0
 23 24  1  0  0  0  0
 24 25  2  0  0  0  0
 24 26  2  0  0  0  0
 24 27  1  0  0  0  0
  2 29  1  0  0  0  0
  4 30  1  0  0  0  0
  6 31  1  0  0  0  0
  8 32  1  0  0  0  0
  9 33  1  0  0  0  0
 11 34  1  0  0  0  0
 12 35  1  0  0  0  0
 13 36  1  0  0  0  0
 15 37  1  0  0  0  0
 16 38  1  0  0  0  0
 19 39  1  0  0  0  0
 21 40  1  0  0  0  0
 22 41  1  0  0  0  0
 27 42  1  0  0  0  0
 27 43  1  0  0  0  0
 27 44  1  0  0  0  0
 28 45  1  0  0  0  0
M  END
> <ID>
49

> <IC50[uM]>
1.528

$$$$
49
  -OEChem-05192314313D
 Structure written by MMmdl.
 45 48  0     1  0  0  0  0  0999 V2000
   93.2820   49.7787  267.6942 C   0  0  0  0  0  0  0  0  0  0  0  0
   92.5593   47.3370  266.4888 C   0  0  0  0  0  0  0  0  0  0  0  0
   91.6047   48.3296  266.6732 C   0  0  0  0  0  0  0  0  0  0  0  0
   91.9709   49.5231  267.2782 C   0  0  0  0  0  0  0  0  0  0  0  0
   93.8953   47.5304  266.9261 C   0  0  0  0  0  0  0  0  0  0  0  0
   94.2750   48.7673  267.5290 C   0  0  3  0  0  0  0  0  0  0  0  0
   95.5619   48.9626  267.9535 N   0  0  0  0  0  0  0  0  0  0  0  0
   96.4516   47.9533  267.7695 C   0  0  0  0  0  0  0  0  0  0  0  0
   96.0598   46.7392  267.2106 C   0  0  0  0  0  0  0  0  0  0  0  0
   94.7989   46.5188  266.7897 N   0  0  0  0  0  0  0  0  0  0  0  0
   93.5952   51.0844  268.3313 C   0  0  0  0  0  0  0  0  0  0  0  0
   94.5719   51.9301  267.7852 C   0  0  0  0  0  0  0  0  0  0  0  0
   94.8427   53.1540  268.3966 C   0  0  0  0  0  0  0  0  0  0  0  0
   94.1433   53.5318  269.5201 C   0  0  0  0  0  0  0  0  0  0  0  0
   93.1746   52.7091  270.0775 C   0  0  0  0  0  0  0  0  0  0  0  0
   92.9084   51.4788  269.4813 C   0  0  0  0  0  0  0  0  0  0  0  0
   90.2697   48.1106  266.3099 N   0  0  0  0  0  0  0  0  0  0  0  0
   89.7103   47.3327  265.2784 C   0  0  0  0  0  0  0  0  0  0  0  0
   90.4172   47.1253  264.0922 C   0  0  0  0  0  0  0  0  0  0  0  0
   89.8957   46.4495  263.0389 N   0  0  0  0  0  0  0  0  0  0  0  0
   88.6529   45.9439  263.1611 C   0  0  0  0  0  0  0  0  0  0  0  0
   87.8862   46.0847  264.3178 C   0  0  0  0  0  0  0  0  0  0  0  0
   88.4170   46.8009  265.3996 C   0  0  0  0  0  0  0  0  0  0  0  0
   87.4738   46.8803  266.9122 S   0  0  0  0  0  0  0  0  0  0  0  0
   86.1325   46.4072  266.6648 O   0  0  0  0  0  0  0  0  0  0  0  0
   87.6872   48.2303  267.4905 O   0  0  0  0  0  0  0  0  0  0  0  0
   88.3692   45.6214  267.9982 C   0  0  0  0  0  0  0  0  0  0  0  0
   94.4021   54.7489  270.1265 N   0  0  0  0  0  0  0  0  0  0  0  0
   92.2821   46.4103  266.0085 H   0  0  0  0  0  0  0  0  0  0  0  0
   91.2177   50.2813  267.4335 H   0  0  0  0  0  0  0  0  0  0  0  0
   94.5335   49.1754  266.5407 H   0  0  0  0  0  0  0  0  0  0  0  0
   97.4816   48.0946  268.0618 H   0  0  0  0  0  0  0  0  0  0  0  0
   96.7897   45.9494  267.1115 H   0  0  0  0  0  0  0  0  0  0  0  0
   95.1108   51.6354  266.8969 H   0  0  0  0  0  0  0  0  0  0  0  0
   95.9070   53.1416  268.6744 H   0  0  0  0  0  0  0  0  0  0  0  0
   94.6706   53.9325  267.6388 H   0  0  0  0  0  0  0  0  0  0  0  0
   92.6351   53.0183  270.9606 H   0  0  0  0  0  0  0  0  0  0  0  0
   92.1648   50.8246  269.9119 H   0  0  0  0  0  0  0  0  0  0  0  0
   91.4195   47.5190  264.0105 H   0  0  0  0  0  0  0  0  0  0  0  0
   88.2311   45.4051  262.3255 H   0  0  0  0  0  0  0  0  0  0  0  0
   86.8998   45.6491  264.3789 H   0  0  0  0  0  0  0  0  0  0  0  0
   87.8789   45.5702  268.9816 H   0  0  0  0  0  0  0  0  0  0  0  0
   88.3330   44.6321  267.5186 H   0  0  0  0  0  0  0  0  0  0  0  0
   89.4176   45.9283  268.1269 H   0  0  0  0  0  0  0  0  0  0  0  0
   93.8301   54.8944  270.9337 H   0  0  0  0  0  0  0  0  0  0  0  0
  1  4  2  0  0  0  0
  1  6  1  0  0  0  0
  1 11  1  0  0  0  0
  2  3  1  0  0  0  0
  2  5  2  0  0  0  0
  3  4  1  0  0  0  0
  3 17  2  3  0  0  0
  5  6  1  0  0  0  0
  5 10  1  0  0  0  0
  6  7  1  0  0  0  0
  7  8  2  0  0  0  0
  8  9  1  0  0  0  0
  9 10  2  0  0  0  0
 11 12  2  0  0  0  0
 11 16  1  0  0  0  0
 12 13  1  0  0  0  0
 13 14  1  0  0  0  0
 14 15  1  0  0  0  0
 14 28  2  0  0  0  0
 15 16  2  0  0  0  0
 17 18  1  0  0  0  0
 18 19  2  0  0  0  0
 18 23  1  0  0  0  0
 19 20  1  0  0  0  0
 20 21  2  0  0  0  0
 21 22  1  0  0  0  0
 22 23  2  0  0  0  0
 23 24  1  0  0  0  0
 24 25  2  0  0  0  0
 24 26  2  0  0  0  0
 24 27  1  0  0  0  0
  2 29  1  0  0  0  0
  4 30  1  0  0  0  0
  6 31  1  0  0  0  0
  8 32  1  0  0  0  0
  9 33  1  0  0  0  0
 12 34  1  0  0  0  0
 13 35  1  0  0  0  0
 13 36  1  0  0  0  0
 15 37  1  0  0  0  0
 16 38  1  0  0  0  0
 19 39  1  0  0  0  0
 21 40  1  0  0  0  0
 22 41  1  0  0  0  0
 27 42  1  0  0  0  0
 27 43  1  0  0  0  0
 27 44  1  0  0  0  0
 28 45  1  0  0  0  0
M  END
> <ID>
49

> <IC50[uM]>
1.528

$$$$
49
  -OEChem-05192314313D
 Structure written by MMmdl.
 45 48  0     1  0  0  0  0  0999 V2000
   93.2820   49.7787  267.6942 C   0  0  0  0  0  0  0  0  0  0  0  0
   92.5593   47.3370  266.4888 C   0  0  0  0  0  0  0  0  0  0  0  0
   91.6047   48.3296  266.6732 C   0  0  0  0  0  0  0  0  0  0  0  0
   91.9709   49.5231  267.2782 C   0  0  0  0  0  0  0  0  0  0  0  0
   93.8953   47.5304  266.9261 C   0  0  0  0  0  0  0  0  0  0  0  0
   94.2750   48.7673  267.5290 C   0  0  3  0  0  0  0  0  0  0  0  0
   95.5619   48.9626  267.9535 N   0  0  0  0  0  0  0  0  0  0  0  0
   96.4516   47.9533  267.7695 C   0  0  0  0  0  0  0  0  0  0  0  0
   96.0598   46.7392  267.2106 C   0  0  0  0  0  0  0  0  0  0  0  0
   94.7989   46.5188  266.7897 N   0  0  0  0  0  0  0  0  0  0  0  0
   93.5952   51.0844  268.3313 C   0  0  0  0  0  0  0  0  0  0  0  0
   94.5719   51.9301  267.7852 C   0  0  0  0  0  0  0  0  0  0  0  0
   94.8427   53.1540  268.3966 C   0  0  0  0  0  0  0  0  0  0  0  0
   94.1433   53.5318  269.5201 C   0  0  0  0  0  0  0  0  0  0  0  0
   93.1746   52.7091  270.0775 C   0  0  0  0  0  0  0  0  0  0  0  0
   92.9084   51.4788  269.4813 C   0  0  0  0  0  0  0  0  0  0  0  0
   90.2697   48.1106  266.3099 N   0  0  0  0  0  0  0  0  0  0  0  0
   89.7103   47.3327  265.2784 C   0  0  0  0  0  0  0  0  0  0  0  0
   90.4172   47.1253  264.0922 C   0  0  0  0  0  0  0  0  0  0  0  0
   89.8957   46.4495  263.0389 N   0  0  0  0  0  0  0  0  0  0  0  0
   88.6529   45.9439  263.1611 C   0  0  0  0  0  0  0  0  0  0  0  0
   87.8862   46.0847  264.3178 C   0  0  0  0  0  0  0  0  0  0  0  0
   88.4170   46.8009  265.3996 C   0  0  0  0  0  0  0  0  0  0  0  0
   87.4738   46.8803  266.9122 S   0  0  0  0  0  0  0  0  0  0  0  0
   86.1325   46.4072  266.6648 O   0  0  0  0  0  0  0  0  0  0  0  0
   87.6872   48.2303  267.4905 O   0  0  0  0  0  0  0  0  0  0  0  0
   88.3692   45.6214  267.9982 C   0  0  0  0  0  0  0  0  0  0  0  0
   94.4021   54.7489  270.1265 N   0  0  0  0  0  0  0  0  0  0  0  0
   92.2821   46.4103  266.0085 H   0  0  0  0  0  0  0  0  0  0  0  0
   91.3408   49.6182  268.1748 H   0  0  0  0  0  0  0  0  0  0  0  0
   91.7151   50.3198  266.5641 H   0  0  0  0  0  0  0  0  0  0  0  0
   94.5335   49.1754  266.5407 H   0  0  0  0  0  0  0  0  0  0  0  0
   97.4816   48.0946  268.0618 H   0  0  0  0  0  0  0  0  0  0  0  0
   96.7897   45.9494  267.1115 H   0  0  0  0  0  0  0  0  0  0  0  0
   95.1108   51.6354  266.8969 H   0  0  0  0  0  0  0  0  0  0  0  0
   95.6013   53.8054  267.9884 H   0  0  0  0  0  0  0  0  0  0  0  0
   92.6351   53.0183  270.9606 H   0  0  0  0  0  0  0  0  0  0  0  0
   92.1648   50.8246  269.9119 H   0  0  0  0  0  0  0  0  0  0  0  0
   91.4195   47.5190  264.0105 H   0  0  0  0  0  0  0  0  0  0  0  0
   88.2311   45.4051  262.3255 H   0  0  0  0  0  0  0  0  0  0  0  0
   86.8998   45.6491  264.3789 H   0  0  0  0  0  0  0  0  0  0  0  0
   87.8789   45.5702  268.9816 H   0  0  0  0  0  0  0  0  0  0  0  0
   88.3330   44.6321  267.5186 H   0  0  0  0  0  0  0  0  0  0  0  0
   89.4176   45.9283  268.1269 H   0  0  0  0  0  0  0  0  0  0  0  0
   93.8301   54.8944  270.9337 H   0  0  0  0  0  0  0  0  0  0  0  0
  1  4  1  0  0  0  0
  1  6  1  0  0  0  0
  1 11  2  0  0  0  0
  2  3  1  0  0  0  0
  2  5  2  0  0  0  0
  3  4  1  0  0  0  0
  3 17  2  3  0  0  0
  5  6  1  0  0  0  0
  5 10  1  0  0  0  0
  6  7  1  0  0  0  0
  7  8  2  0  0  0  0
  8  9  1  0  0  0  0
  9 10  2  0  0  0  0
 11 12  1  0  0  0  0
 11 16  1  0  0  0  0
 12 13  2  0  0  0  0
 13 14  1  0  0  0  0
 14 15  1  0  0  0  0
 14 28  2  0  0  0  0
 15 16  2  0  0  0  0
 17 18  1  0  0  0  0
 18 19  2  0  0  0  0
 18 23  1  0  0  0  0
 19 20  1  0  0  0  0
 20 21  2  0  0  0  0
 21 22  1  0  0  0  0
 22 23  2  0  0  0  0
 23 24  1  0  0  0  0
 24 25  2  0  0  0  0
 24 26  2  0  0  0  0
 24 27  1  0  0  0  0
  2 29  1  0  0  0  0
  4 30  1  0  0  0  0
  4 31  1  0  0  0  0
  6 32  1  0  0  0  0
  8 33  1  0  0  0  0
  9 34  1  0  0  0  0
 12 35  1  0  0  0  0
 13 36  1  0  0  0  0
 15 37  1  0  0  0  0
 16 38  1  0  0  0  0
 19 39  1  0  0  0  0
 21 40  1  0  0  0  0
 22 41  1  0  0  0  0
 27 42  1  0  0  0  0
 27 43  1  0  0  0  0
 27 44  1  0  0  0  0
 28 45  1  0  0  0  0
M  END
> <ID>
49

> <IC50[uM]>
1.528

$$$$
49
  -OEChem-05192314313D
 Structure written by MMmdl.
 45 48  0     0  0  0  0  0  0999 V2000
   93.2820   49.7787  267.6942 C   0  0  0  0  0  0  0  0  0  0  0  0
   92.5593   47.3370  266.4888 C   0  0  0  0  0  0  0  0  0  0  0  0
   91.6047   48.3296  266.6732 C   0  0  0  0  0  0  0  0  0  0  0  0
   91.9709   49.5231  267.2782 C   0  0  0  0  0  0  0  0  0  0  0  0
   93.8953   47.5304  266.9261 C   0  0  0  0  0  0  0  0  0  0  0  0
   94.2750   48.7673  267.5290 C   0  0  0  0  0  0  0  0  0  0  0  0
   95.5619   48.9626  267.9535 N   0  0  0  0  0  0  0  0  0  0  0  0
   96.4516   47.9533  267.7695 C   0  0  0  0  0  0  0  0  0  0  0  0
   96.0598   46.7392  267.2106 C   0  0  0  0  0  0  0  0  0  0  0  0
   94.7989   46.5188  266.7897 N   0  0  0  0  0  0  0  0  0  0  0  0
   93.5952   51.0844  268.3313 C   0  0  0  0  0  0  0  0  0  0  0  0
   94.5719   51.9301  267.7852 C   0  0  0  0  0  0  0  0  0  0  0  0
   94.8427   53.1540  268.3966 C   0  0  0  0  0  0  0  0  0  0  0  0
   94.1433   53.5318  269.5201 C   0  0  0  0  0  0  0  0  0  0  0  0
   93.1746   52.7091  270.0775 C   0  0  0  0  0  0  0  0  0  0  0  0
   92.9084   51.4788  269.4813 C   0  0  0  0  0  0  0  0  0  0  0  0
   90.2697   48.1106  266.3099 N   0  0  0  0  0  0  0  0  0  0  0  0
   89.7103   47.3327  265.2784 C   0  0  0  0  0  0  0  0  0  0  0  0
   90.4172   47.1253  264.0922 C   0  0  0  0  0  0  0  0  0  0  0  0
   89.8957   46.4495  263.0389 N   0  0  0  0  0  0  0  0  0  0  0  0
   88.6529   45.9439  263.1611 C   0  0  0  0  0  0  0  0  0  0  0  0
   87.8862   46.0847  264.3178 C   0  0  0  0  0  0  0  0  0  0  0  0
   88.4170   46.8009  265.3996 C   0  0  0  0  0  0  0  0  0  0  0  0
   87.4738   46.8803  266.9122 S   0  0  0  0  0  0  0  0  0  0  0  0
   86.1325   46.4072  266.6648 O   0  0  0  0  0  0  0  0  0  0  0  0
   87.6872   48.2303  267.4905 O   0  0  0  0  0  0  0  0  0  0  0  0
   88.3692   45.6214  267.9982 C   0  0  0  0  0  0  0  0  0  0  0  0
   94.4021   54.7489  270.1265 N   0  0  0  0  0  0  0  0  0  0  0  0
   92.2821   46.4103  266.0085 H   0  0  0  0  0  0  0  0  0  0  0  0
   91.2177   50.2813  267.4335 H   0  0  0  0  0  0  0  0  0  0  0  0
   97.2464   48.3524  267.1223 H   0  0  0  0  0  0  0  0  0  0  0  0
   96.8682   47.7203  268.7606 H   0  0  0  0  0  0  0  0  0  0  0  0
   96.7897   45.9494  267.1115 H   0  0  0  0  0  0  0  0  0  0  0  0
   94.3614   50.5987  268.9535 H   0  0  0  0  0  0  0  0  0  0  0  0
   95.1108   51.6354  266.8969 H   0  0  0  0  0  0  0  0  0  0  0  0
   95.6013   53.8054  267.9884 H   0  0  0  0  0  0  0  0  0  0  0  0
   92.6351   53.0183  270.9606 H   0  0  0  0  0  0  0  0  0  0  0  0
   92.1648   50.8246  269.9119 H   0  0  0  0  0  0  0  0  0  0  0  0
   91.4195   47.5190  264.0105 H   0  0  0  0  0  0  0  0  0  0  0  0
   88.2311   45.4051  262.3255 H   0  0  0  0  0  0  0  0  0  0  0  0
   86.8998   45.6491  264.3789 H   0  0  0  0  0  0  0  0  0  0  0  0
   87.8789   45.5702  268.9816 H   0  0  0  0  0  0  0  0  0  0  0  0
   88.3330   44.6321  267.5186 H   0  0  0  0  0  0  0  0  0  0  0  0
   89.4176   45.9283  268.1269 H   0  0  0  0  0  0  0  0  0  0  0  0
   93.8301   54.8944  270.9337 H   0  0  0  0  0  0  0  0  0  0  0  0
  1  4  2  0  0  0  0
  1  6  1  0  0  0  0
  1 11  1  0  0  0  0
  2  3  1  0  0  0  0
  2  5  2  0  0  0  0
  3  4  1  0  0  0  0
  3 17  2  3  0  0  0
  5  6  1  0  0  0  0
  5 10  1  0  0  0  0
  6  7  2  0  0  0  0
  7  8  1  0  0  0  0
  8  9  1  0  0  0  0
  9 10  2  0  0  0  0
 11 12  1  0  0  0  0
 11 16  1  0  0  0  0
 12 13  2  0  0  0  0
 13 14  1  0  0  0  0
 14 15  1  0  0  0  0
 14 28  2  0  0  0  0
 15 16  2  0  0  0  0
 17 18  1  0  0  0  0
 18 19  2  0  0  0  0
 18 23  1  0  0  0  0
 19 20  1  0  0  0  0
 20 21  2  0  0  0  0
 21 22  1  0  0  0  0
 22 23  2  0  0  0  0
 23 24  1  0  0  0  0
 24 25  2  0  0  0  0
 24 26  2  0  0  0  0
 24 27  1  0  0  0  0
  2 29  1  0  0  0  0
  4 30  1  0  0  0  0
  8 31  1  0  0  0  0
  8 32  1  0  0  0  0
  9 33  1  0  0  0  0
 11 34  1  0  0  0  0
 12 35  1  0  0  0  0
 13 36  1  0  0  0  0
 15 37  1  0  0  0  0
 16 38  1  0  0  0  0
 19 39  1  0  0  0  0
 21 40  1  0  0  0  0
 22 41  1  0  0  0  0
 27 42  1  0  0  0  0
 27 43  1  0  0  0  0
 27 44  1  0  0  0  0
 28 45  1  0  0  0  0
M  END
> <ID>
49

> <IC50[uM]>
1.528

$$$$
49
  -OEChem-05192314313D
 Structure written by MMmdl.
 45 48  0     0  0  0  0  0  0999 V2000
   93.2820   49.7787  267.6942 C   0  0  0  0  0  0  0  0  0  0  0  0
   92.5593   47.3370  266.4888 C   0  0  0  0  0  0  0  0  0  0  0  0
   91.6047   48.3296  266.6732 C   0  0  0  0  0  0  0  0  0  0  0  0
   91.9709   49.5231  267.2782 C   0  0  0  0  0  0  0  0  0  0  0  0
   93.8953   47.5304  266.9261 C   0  0  0  0  0  0  0  0  0  0  0  0
   94.2750   48.7673  267.5290 C   0  0  0  0  0  0  0  0  0  0  0  0
   95.5619   48.9626  267.9535 N   0  0  0  0  0  0  0  0  0  0  0  0
   96.4516   47.9533  267.7695 C   0  0  0  0  0  0  0  0  0  0  0  0
   96.0598   46.7392  267.2106 C   0  0  0  0  0  0  0  0  0  0  0  0
   94.7989   46.5188  266.7897 N   0  0  0  0  0  0  0  0  0  0  0  0
   93.5952   51.0844  268.3313 C   0  0  0  0  0  0  0  0  0  0  0  0
   94.5719   51.9301  267.7852 C   0  0  0  0  0  0  0  0  0  0  0  0
   94.8427   53.1540  268.3966 C   0  0  0  0  0  0  0  0  0  0  0  0
   94.1433   53.5318  269.5201 C   0  0  0  0  0  0  0  0  0  0  0  0
   93.1746   52.7091  270.0775 C   0  0  0  0  0  0  0  0  0  0  0  0
   92.9084   51.4788  269.4813 C   0  0  0  0  0  0  0  0  0  0  0  0
   90.2697   48.1106  266.3099 N   0  0  0  0  0  0  0  0  0  0  0  0
   89.7103   47.3327  265.2784 C   0  0  0  0  0  0  0  0  0  0  0  0
   90.4172   47.1253  264.0922 C   0  0  0  0  0  0  0  0  0  0  0  0
   89.8957   46.4495  263.0389 N   0  0  0  0  0  0  0  0  0  0  0  0
   88.6529   45.9439  263.1611 C   0  0  0  0  0  0  0  0  0  0  0  0
   87.8862   46.0847  264.3178 C   0  0  0  0  0  0  0  0  0  0  0  0
   88.4170   46.8009  265.3996 C   0  0  0  0  0  0  0  0  0  0  0  0
   87.4738   46.8803  266.9122 S   0  0  0  0  0  0  0  0  0  0  0  0
   86.1325   46.4072  266.6648 O   0  0  0  0  0  0  0  0  0  0  0  0
   87.6872   48.2303  267.4905 O   0  0  0  0  0  0  0  0  0  0  0  0
   88.3692   45.6214  267.9982 C   0  0  0  0  0  0  0  0  0  0  0  0
   94.4021   54.7489  270.1265 N   0  0  0  0  0  0  0  0  0  0  0  0
   92.2821   46.4103  266.0085 H   0  0  0  0  0  0  0  0  0  0  0  0
   91.2177   50.2813  267.4335 H   0  0  0  0  0  0  0  0  0  0  0  0
   97.2464   48.3524  267.1223 H   0  0  0  0  0  0  0  0  0  0  0  0
   96.8682   47.7203  268.7606 H   0  0  0  0  0  0  0  0  0  0  0  0
   96.7897   45.9494  267.1115 H   0  0  0  0  0  0  0  0  0  0  0  0
   95.1108   51.6354  266.8969 H   0  0  0  0  0  0  0  0  0  0  0  0
   95.9070   53.1416  268.6744 H   0  0  0  0  0  0  0  0  0  0  0  0
   94.6706   53.9325  267.6388 H   0  0  0  0  0  0  0  0  0  0  0  0
   92.6351   53.0183  270.9606 H   0  0  0  0  0  0  0  0  0  0  0  0
   92.1648   50.8246  269.9119 H   0  0  0  0  0  0  0  0  0  0  0  0
   91.4195   47.5190  264.0105 H   0  0  0  0  0  0  0  0  0  0  0  0
   88.2311   45.4051  262.3255 H   0  0  0  0  0  0  0  0  0  0  0  0
   86.8998   45.6491  264.3789 H   0  0  0  0  0  0  0  0  0  0  0  0
   87.8789   45.5702  268.9816 H   0  0  0  0  0  0  0  0  0  0  0  0
   88.3330   44.6321  267.5186 H   0  0  0  0  0  0  0  0  0  0  0  0
   89.4176   45.9283  268.1269 H   0  0  0  0  0  0  0  0  0  0  0  0
   93.8301   54.8944  270.9337 H   0  0  0  0  0  0  0  0  0  0  0  0
  1  4  2  0  0  0  0
  1  6  1  0  0  0  0
  1 11  1  0  0  0  0
  2  3  1  0  0  0  0
  2  5  2  0  0  0  0
  3  4  1  0  0  0  0
  3 17  2  3  0  0  0
  5  6  1  0  0  0  0
  5 10  1  0  0  0  0
  6  7  2  0  0  0  0
  7  8  1  0  0  0  0
  8  9  1  0  0  0  0
  9 10  2  0  0  0  0
 11 12  2  0  0  0  0
 11 16  1  0  0  0  0
 12 13  1  0  0  0  0
 13 14  1  0  0  0  0
 14 15  1  0  0  0  0
 14 28  2  0  0  0  0
 15 16  2  0  0  0  0
 17 18  1  0  0  0  0
 18 19  2  0  0  0  0
 18 23  1  0  0  0  0
 19 20  1  0  0  0  0
 20 21  2  0  0  0  0
 21 22  1  0  0  0  0
 22 23  2  0  0  0  0
 23 24  1  0  0  0  0
 24 25  2  0  0  0  0
 24 26  2  0  0  0  0
 24 27  1  0  0  0  0
  2 29  1  0  0  0  0
  4 30  1  0  0  0  0
  8 31  1  0  0  0  0
  8 32  1  0  0  0  0
  9 33  1  0  0  0  0
 12 34  1  0  0  0  0
 13 35  1  0  0  0  0
 13 36  1  0  0  0  0
 15 37  1  0  0  0  0
 16 38  1  0  0  0  0
 19 39  1  0  0  0  0
 21 40  1  0  0  0  0
 22 41  1  0  0  0  0
 27 42  1  0  0  0  0
 27 43  1  0  0  0  0
 27 44  1  0  0  0  0
 28 45  1  0  0  0  0
M  END
> <ID>
49

> <IC50[uM]>
1.528

$$$$
49
  -OEChem-05192314313D
 Structure written by MMmdl.
 45 48  0     0  0  0  0  0  0999 V2000
   93.2820   49.7787  267.6942 C   0  0  0  0  0  0  0  0  0  0  0  0
   92.5593   47.3370  266.4888 C   0  0  0  0  0  0  0  0  0  0  0  0
   91.6047   48.3296  266.6732 C   0  0  0  0  0  0  0  0  0  0  0  0
   91.9709   49.5231  267.2782 C   0  0  0  0  0  0  0  0  0  0  0  0
   93.8953   47.5304  266.9261 C   0  0  0  0  0  0  0  0  0  0  0  0
   94.2750   48.7673  267.5290 C   0  0  0  0  0  0  0  0  0  0  0  0
   95.5619   48.9626  267.9535 N   0  0  0  0  0  0  0  0  0  0  0  0
   96.4516   47.9533  267.7695 C   0  0  0  0  0  0  0  0  0  0  0  0
   96.0598   46.7392  267.2106 C   0  0  0  0  0  0  0  0  0  0  0  0
   94.7989   46.5188  266.7897 N   0  0  0  0  0  0  0  0  0  0  0  0
   93.5952   51.0844  268.3313 C   0  0  0  0  0  0  0  0  0  0  0  0
   94.5719   51.9301  267.7852 C   0  0  0  0  0  0  0  0  0  0  0  0
   94.8427   53.1540  268.3966 C   0  0  0  0  0  0  0  0  0  0  0  0
   94.1433   53.5318  269.5201 C   0  0  0  0  0  0  0  0  0  0  0  0
   93.1746   52.7091  270.0775 C   0  0  0  0  0  0  0  0  0  0  0  0
   92.9084   51.4788  269.4813 C   0  0  0  0  0  0  0  0  0  0  0  0
   90.2697   48.1106  266.3099 N   0  0  0  0  0  0  0  0  0  0  0  0
   89.7103   47.3327  265.2784 C   0  0  0  0  0  0  0  0  0  0  0  0
   90.4172   47.1253  264.0922 C   0  0  0  0  0  0  0  0  0  0  0  0
   89.8957   46.4495  263.0389 N   0  0  0  0  0  0  0  0  0  0  0  0
   88.6529   45.9439  263.1611 C   0  0  0  0  0  0  0  0  0  0  0  0
   87.8862   46.0847  264.3178 C   0  0  0  0  0  0  0  0  0  0  0  0
   88.4170   46.8009  265.3996 C   0  0  0  0  0  0  0  0  0  0  0  0
   87.4738   46.8803  266.9122 S   0  0  0  0  0  0  0  0  0  0  0  0
   86.1325   46.4072  266.6648 O   0  0  0  0  0  0  0  0  0  0  0  0
   87.6872   48.2303  267.4905 O   0  0  0  0  0  0  0  0  0  0  0  0
   88.3692   45.6214  267.9982 C   0  0  0  0  0  0  0  0  0  0  0  0
   94.4021   54.7489  270.1265 N   0  0  0  0  0  0  0  0  0  0  0  0
   92.2821   46.4103  266.0085 H   0  0  0  0  0  0  0  0  0  0  0  0
   91.3408   49.6182  268.1748 H   0  0  0  0  0  0  0  0  0  0  0  0
   91.7151   50.3198  266.5641 H   0  0  0  0  0  0  0  0  0  0  0  0
   97.2464   48.3524  267.1223 H   0  0  0  0  0  0  0  0  0  0  0  0
   96.8682   47.7203  268.7606 H   0  0  0  0  0  0  0  0  0  0  0  0
   96.7897   45.9494  267.1115 H   0  0  0  0  0  0  0  0  0  0  0  0
   95.1108   51.6354  266.8969 H   0  0  0  0  0  0  0  0  0  0  0  0
   95.6013   53.8054  267.9884 H   0  0  0  0  0  0  0  0  0  0  0  0
   92.6351   53.0183  270.9606 H   0  0  0  0  0  0  0  0  0  0  0  0
   92.1648   50.8246  269.9119 H   0  0  0  0  0  0  0  0  0  0  0  0
   91.4195   47.5190  264.0105 H   0  0  0  0  0  0  0  0  0  0  0  0
   88.2311   45.4051  262.3255 H   0  0  0  0  0  0  0  0  0  0  0  0
   86.8998   45.6491  264.3789 H   0  0  0  0  0  0  0  0  0  0  0  0
   87.8789   45.5702  268.9816 H   0  0  0  0  0  0  0  0  0  0  0  0
   88.3330   44.6321  267.5186 H   0  0  0  0  0  0  0  0  0  0  0  0
   89.4176   45.9283  268.1269 H   0  0  0  0  0  0  0  0  0  0  0  0
   93.8301   54.8944  270.9337 H   0  0  0  0  0  0  0  0  0  0  0  0
  1  4  1  0  0  0  0
  1  6  1  0  0  0  0
  1 11  2  0  0  0  0
  2  3  1  0  0  0  0
  2  5  2  0  0  0  0
  3  4  1  0  0  0  0
  3 17  2  3  0  0  0
  5  6  1  0  0  0  0
  5 10  1  0  0  0  0
  6  7  2  0  0  0  0
  7  8  1  0  0  0  0
  8  9  1  0  0  0  0
  9 10  2  0  0  0  0
 11 12  1  0  0  0  0
 11 16  1  0  0  0  0
 12 13  2  0  0  0  0
 13 14  1  0  0  0  0
 14 15  1  0  0  0  0
 14 28  2  0  0  0  0
 15 16  2  0  0  0  0
 17 18  1  0  0  0  0
 18 19  2  0  0  0  0
 18 23  1  0  0  0  0
 19 20  1  0  0  0  0
 20 21  2  0  0  0  0
 21 22  1  0  0  0  0
 22 23  2  0  0  0  0
 23 24  1  0  0  0  0
 24 25  2  0  0  0  0
 24 26  2  0  0  0  0
 24 27  1  0  0  0  0
  2 29  1  0  0  0  0
  4 30  1  0  0  0  0
  4 31  1  0  0  0  0
  8 32  1  0  0  0  0
  8 33  1  0  0  0  0
  9 34  1  0  0  0  0
 12 35  1  0  0  0  0
 13 36  1  0  0  0  0
 15 37  1  0  0  0  0
 16 38  1  0  0  0  0
 19 39  1  0  0  0  0
 21 40  1  0  0  0  0
 22 41  1  0  0  0  0
 27 42  1  0  0  0  0
 27 43  1  0  0  0  0
 27 44  1  0  0  0  0
 28 45  1  0  0  0  0
M  END
> <ID>
49

> <IC50[uM]>
1.528

$$$$
49
  -OEChem-05192314313D
 Structure written by MMmdl.
 45 48  0     1  0  0  0  0  0999 V2000
   93.2820   49.7787  267.6942 C   0  0  0  0  0  0  0  0  0  0  0  0
   92.5593   47.3370  266.4888 C   0  0  0  0  0  0  0  0  0  0  0  0
   91.6047   48.3296  266.6732 C   0  0  0  0  0  0  0  0  0  0  0  0
   91.9709   49.5231  267.2782 C   0  0  0  0  0  0  0  0  0  0  0  0
   93.8953   47.5304  266.9261 C   0  0  0  0  0  0  0  0  0  0  0  0
   94.2750   48.7673  267.5290 C   0  0  3  0  0  0  0  0  0  0  0  0
   95.5619   48.9626  267.9535 N   0  0  0  0  0  0  0  0  0  0  0  0
   96.4516   47.9533  267.7695 C   0  0  0  0  0  0  0  0  0  0  0  0
   96.0598   46.7392  267.2106 C   0  0  0  0  0  0  0  0  0  0  0  0
   94.7989   46.5188  266.7897 N   0  0  0  0  0  0  0  0  0  0  0  0
   93.5952   51.0844  268.3313 C   0  0  0  0  0  0  0  0  0  0  0  0
   94.5719   51.9301  267.7852 C   0  0  0  0  0  0  0  0  0  0  0  0
   94.8427   53.1540  268.3966 C   0  0  0  0  0  0  0  0  0  0  0  0
   94.1433   53.5318  269.5201 C   0  0  0  0  0  0  0  0  0  0  0  0
   93.1746   52.7091  270.0775 C   0  0  0  0  0  0  0  0  0  0  0  0
   92.9084   51.4788  269.4813 C   0  0  0  0  0  0  0  0  0  0  0  0
   90.2697   48.1106  266.3099 N   0  0  0  0  0  0  0  0  0  0  0  0
   89.7103   47.3327  265.2784 C   0  0  0  0  0  0  0  0  0  0  0  0
   90.4172   47.1253  264.0922 C   0  0  0  0  0  0  0  0  0  0  0  0
   89.8957   46.4495  263.0389 N   0  0  0  0  0  0  0  0  0  0  0  0
   88.6529   45.9439  263.1611 C   0  0  0  0  0  0  0  0  0  0  0  0
   87.8862   46.0847  264.3178 C   0  0  0  0  0  0  0  0  0  0  0  0
   88.4170   46.8009  265.3996 C   0  0  0  0  0  0  0  0  0  0  0  0
   87.4738   46.8803  266.9122 S   0  0  0  0  0  0  0  0  0  0  0  0
   86.1325   46.4072  266.6648 O   0  0  0  0  0  0  0  0  0  0  0  0
   87.6872   48.2303  267.4905 O   0  0  0  0  0  0  0  0  0  0  0  0
   88.3692   45.6214  267.9982 C   0  0  0  0  0  0  0  0  0  0  0  0
   94.4021   54.7489  270.1265 N   0  0  0  0  0  0  0  0  0  0  0  0
   92.2821   46.4103  266.0085 H   0  0  0  0  0  0  0  0  0  0  0  0
   91.2177   50.2813  267.4335 H   0  0  0  0  0  0  0  0  0  0  0  0
   94.5335   49.1754  266.5407 H   0  0  0  0  0  0  0  0  0  0  0  0
   97.4816   48.0946  268.0618 H   0  0  0  0  0  0  0  0  0  0  0  0
   96.7897   45.9494  267.1115 H   0  0  0  0  0  0  0  0  0  0  0  0
   95.1108   51.6354  266.8969 H   0  0  0  0  0  0  0  0  0  0  0  0
   95.6013   53.8054  267.9884 H   0  0  0  0  0  0  0  0  0  0  0  0
   92.6351   53.0183  270.9606 H   0  0  0  0  0  0  0  0  0  0  0  0
   92.1648   50.8246  269.9119 H   0  0  0  0  0  0  0  0  0  0  0  0
   89.6006   48.5876  266.8798 H   0  0  0  0  0  0  0  0  0  0  0  0
   91.4195   47.5190  264.0105 H   0  0  0  0  0  0  0  0  0  0  0  0
   88.2311   45.4051  262.3255 H   0  0  0  0  0  0  0  0  0  0  0  0
   86.8998   45.6491  264.3789 H   0  0  0  0  0  0  0  0  0  0  0  0
   87.8789   45.5702  268.9816 H   0  0  0  0  0  0  0  0  0  0  0  0
   88.3330   44.6321  267.5186 H   0  0  0  0  0  0  0  0  0  0  0  0
   89.4176   45.9283  268.1269 H   0  0  0  0  0  0  0  0  0  0  0  0
   93.8301   54.8944  270.9337 H   0  0  0  0  0  0  0  0  0  0  0  0
  1  4  1  0  0  0  0
  1  6  1  0  0  0  0
  1 11  2  0  0  0  0
  2  3  1  0  0  0  0
  2  5  2  0  0  0  0
  3  4  2  0  0  0  0
  3 17  1  0  0  0  0
  5  6  1  0  0  0  0
  5 10  1  0  0  0  0
  6  7  1  0  0  0  0
  7  8  2  0  0  0  0
  8  9  1  0  0  0  0
  9 10  2  0  0  0  0
 11 12  1  0  0  0  0
 11 16  1  0  0  0  0
 12 13  2  0  0  0  0
 13 14  1  0  0  0  0
 14 15  1  0  0  0  0
 14 28  2  0  0  0  0
 15 16  2  0  0  0  0
 17 18  1  0  0  0  0
 18 19  2  0  0  0  0
 18 23  1  0  0  0  0
 19 20  1  0  0  0  0
 20 21  2  0  0  0  0
 21 22  1  0  0  0  0
 22 23  2  0  0  0  0
 23 24  1  0  0  0  0
 24 25  2  0  0  0  0
 24 26  2  0  0  0  0
 24 27  1  0  0  0  0
  2 29  1  0  0  0  0
  4 30  1  0  0  0  0
  6 31  1  0  0  0  0
  8 32  1  0  0  0  0
  9 33  1  0  0  0  0
 12 34  1  0  0  0  0
 13 35  1  0  0  0  0
 15 36  1  0  0  0  0
 16 37  1  0  0  0  0
 17 38  1  0  0  0  0
 19 39  1  0  0  0  0
 21 40  1  0  0  0  0
 22 41  1  0  0  0  0
 27 42  1  0  0  0  0
 27 43  1  0  0  0  0
 27 44  1  0  0  0  0
 28 45  1  0  0  0  0
M  END
> <ID>
49

> <IC50[uM]>
1.528

$$$$
49
  -OEChem-05192314313D
 Structure written by MMmdl.
 45 48  0     0  0  0  0  0  0999 V2000
   93.2820   49.7787  267.6942 C   0  0  0  0  0  0  0  0  0  0  0  0
   92.5593   47.3370  266.4888 C   0  0  0  0  0  0  0  0  0  0  0  0
   91.6047   48.3296  266.6732 C   0  0  0  0  0  0  0  0  0  0  0  0
   91.9709   49.5231  267.2782 C   0  0  0  0  0  0  0  0  0  0  0  0
   93.8953   47.5304  266.9261 C   0  0  0  0  0  0  0  0  0  0  0  0
   94.2750   48.7673  267.5290 C   0  0  0  0  0  0  0  0  0  0  0  0
   95.5619   48.9626  267.9535 N   0  0  0  0  0  0  0  0  0  0  0  0
   96.4516   47.9533  267.7695 C   0  0  0  0  0  0  0  0  0  0  0  0
   96.0598   46.7392  267.2106 C   0  0  0  0  0  0  0  0  0  0  0  0
   94.7989   46.5188  266.7897 N   0  0  0  0  0  0  0  0  0  0  0  0
   93.5952   51.0844  268.3313 C   0  0  0  0  0  0  0  0  0  0  0  0
   94.5719   51.9301  267.7852 C   0  0  0  0  0  0  0  0  0  0  0  0
   94.8427   53.1540  268.3966 C   0  0  0  0  0  0  0  0  0  0  0  0
   94.1433   53.5318  269.5201 C   0  0  0  0  0  0  0  0  0  0  0  0
   93.1746   52.7091  270.0775 C   0  0  0  0  0  0  0  0  0  0  0  0
   92.9084   51.4788  269.4813 C   0  0  0  0  0  0  0  0  0  0  0  0
   90.2697   48.1106  266.3099 N   0  0  0  0  0  0  0  0  0  0  0  0
   89.7103   47.3327  265.2784 C   0  0  0  0  0  0  0  0  0  0  0  0
   90.4172   47.1253  264.0922 C   0  0  0  0  0  0  0  0  0  0  0  0
   89.8957   46.4495  263.0389 N   0  0  0  0  0  0  0  0  0  0  0  0
   88.6529   45.9439  263.1611 C   0  0  0  0  0  0  0  0  0  0  0  0
   87.8862   46.0847  264.3178 C   0  0  0  0  0  0  0  0  0  0  0  0
   88.4170   46.8009  265.3996 C   0  0  0  0  0  0  0  0  0  0  0  0
   87.4738   46.8803  266.9122 S   0  0  0  0  0  0  0  0  0  0  0  0
   86.1325   46.4072  266.6648 O   0  0  0  0  0  0  0  0  0  0  0  0
   87.6872   48.2303  267.4905 O   0  0  0  0  0  0  0  0  0  0  0  0
   88.3692   45.6214  267.9982 C   0  0  0  0  0  0  0  0  0  0  0  0
   94.4021   54.7489  270.1265 N   0  0  0  0  0  0  0  0  0  0  0  0
   92.2821   46.4103  266.0085 H   0  0  0  0  0  0  0  0  0  0  0  0
   91.3408   49.6182  268.1748 H   0  0  0  0  0  0  0  0  0  0  0  0
   91.7151   50.3198  266.5641 H   0  0  0  0  0  0  0  0  0  0  0  0
   97.4816   48.0946  268.0618 H   0  0  0  0  0  0  0  0  0  0  0  0
   96.7897   45.9494  267.1115 H   0  0  0  0  0  0  0  0  0  0  0  0
   94.5344   45.6411  266.3900 H   0  0  0  0  0  0  0  0  0  0  0  0
   95.1108   51.6354  266.8969 H   0  0  0  0  0  0  0  0  0  0  0  0
   95.6013   53.8054  267.9884 H   0  0  0  0  0  0  0  0  0  0  0  0
   92.6351   53.0183  270.9606 H   0  0  0  0  0  0  0  0  0  0  0  0
   92.1648   50.8246  269.9119 H   0  0  0  0  0  0  0  0  0  0  0  0
   91.4195   47.5190  264.0105 H   0  0  0  0  0  0  0  0  0  0  0  0
   88.2311   45.4051  262.3255 H   0  0  0  0  0  0  0  0  0  0  0  0
   86.8998   45.6491  264.3789 H   0  0  0  0  0  0  0  0  0  0  0  0
   87.8789   45.5702  268.9816 H   0  0  0  0  0  0  0  0  0  0  0  0
   88.3330   44.6321  267.5186 H   0  0  0  0  0  0  0  0  0  0  0  0
   89.4176   45.9283  268.1269 H   0  0  0  0  0  0  0  0  0  0  0  0
   93.8301   54.8944  270.9337 H   0  0  0  0  0  0  0  0  0  0  0  0
  1  4  1  0  0  0  0
  1  6  1  0  0  0  0
  1 11  2  0  0  0  0
  2  3  1  0  0  0  0
  2  5  2  0  0  0  0
  3  4  1  0  0  0  0
  3 17  2  3  0  0  0
  5  6  1  0  0  0  0
  5 10  1  0  0  0  0
  6  7  2  0  0  0  0
  7  8  1  0  0  0  0
  8  9  2  0  0  0  0
  9 10  1  0  0  0  0
 11 12  1  0  0  0  0
 11 16  1  0  0  0  0
 12 13  2  0  0  0  0
 13 14  1  0  0  0  0
 14 15  1  0  0  0  0
 14 28  2  0  0  0  0
 15 16  2  0  0  0  0
 17 18  1  0  0  0  0
 18 19  2  0  0  0  0
 18 23  1  0  0  0  0
 19 20  1  0  0  0  0
 20 21  2  0  0  0  0
 21 22  1  0  0  0  0
 22 23  2  0  0  0  0
 23 24  1  0  0  0  0
 24 25  2  0  0  0  0
 24 26  2  0  0  0  0
 24 27  1  0  0  0  0
  2 29  1  0  0  0  0
  4 30  1  0  0  0  0
  4 31  1  0  0  0  0
  8 32  1  0  0  0  0
  9 33  1  0  0  0  0
 10 34  1  0  0  0  0
 12 35  1  0  0  0  0
 13 36  1  0  0  0  0
 15 37  1  0  0  0  0
 16 38  1  0  0  0  0
 19 39  1  0  0  0  0
 21 40  1  0  0  0  0
 22 41  1  0  0  0  0
 27 42  1  0  0  0  0
 27 43  1  0  0  0  0
 27 44  1  0  0  0  0
 28 45  1  0  0  0  0
M  END
> <ID>
49

> <IC50[uM]>
1.528

$$$$
49
  -OEChem-05192314313D
 Structure written by MMmdl.
 45 48  0     1  0  0  0  0  0999 V2000
   93.2820   49.7787  267.6942 C   0  0  0  0  0  0  0  0  0  0  0  0
   92.5593   47.3370  266.4888 C   0  0  0  0  0  0  0  0  0  0  0  0
   91.6047   48.3296  266.6732 C   0  0  0  0  0  0  0  0  0  0  0  0
   91.9709   49.5231  267.2782 C   0  0  0  0  0  0  0  0  0  0  0  0
   93.8953   47.5304  266.9261 C   0  0  0  0  0  0  0  0  0  0  0  0
   94.2750   48.7673  267.5290 C   0  0  0  0  0  0  0  0  0  0  0  0
   95.5619   48.9626  267.9535 N   0  0  0  0  0  0  0  0  0  0  0  0
   96.4516   47.9533  267.7695 C   0  0  0  0  0  0  0  0  0  0  0  0
   96.0598   46.7392  267.2106 C   0  0  0  0  0  0  0  0  0  0  0  0
   94.7989   46.5188  266.7897 N   0  0  0  0  0  0  0  0  0  0  0  0
   93.5952   51.0844  268.3313 C   0  0  0  0  0  0  0  0  0  0  0  0
   94.5719   51.9301  267.7852 C   0  0  0  0  0  0  0  0  0  0  0  0
   94.8427   53.1540  268.3966 C   0  0  0  0  0  0  0  0  0  0  0  0
   94.1433   53.5318  269.5201 C   0  0  0  0  0  0  0  0  0  0  0  0
   93.1746   52.7091  270.0775 C   0  0  0  0  0  0  0  0  0  0  0  0
   92.9084   51.4788  269.4813 C   0  0  0  0  0  0  0  0  0  0  0  0
   90.2697   48.1106  266.3099 N   0  0  0  0  0  0  0  0  0  0  0  0
   89.7103   47.3327  265.2784 C   0  0  0  0  0  0  0  0  0  0  0  0
   90.4172   47.1253  264.0922 C   0  0  0  0  0  0  0  0  0  0  0  0
   89.8957   46.4495  263.0389 N   0  0  0  0  0  0  0  0  0  0  0  0
   88.6529   45.9439  263.1611 C   0  0  0  0  0  0  0  0  0  0  0  0
   87.8862   46.0847  264.3178 C   0  0  0  0  0  0  0  0  0  0  0  0
   88.4170   46.8009  265.3996 C   0  0  3  0  0  0  0  0  0  0  0  0
   87.4738   46.8803  266.9122 S   0  0  0  0  0  0  0  0  0  0  0  0
   86.1325   46.4072  266.6648 O   0  0  0  0  0  0  0  0  0  0  0  0
   87.6872   48.2303  267.4905 O   0  0  0  0  0  0  0  0  0  0  0  0
   88.3692   45.6214  267.9982 C   0  0  0  0  0  0  0  0  0  0  0  0
   94.4021   54.7489  270.1265 N   0  0  0  0  0  0  0  0  0  0  0  0
   92.1855   46.4408  267.0057 H   0  0  0  0  0  0  0  0  0  0  0  0
   92.6071   47.1432  265.4070 H   0  0  0  0  0  0  0  0  0  0  0  0
   91.2177   50.2813  267.4335 H   0  0  0  0  0  0  0  0  0  0  0  0
   97.4816   48.0946  268.0618 H   0  0  0  0  0  0  0  0  0  0  0  0
   96.7897   45.9494  267.1115 H   0  0  0  0  0  0  0  0  0  0  0  0
   95.1108   51.6354  266.8969 H   0  0  0  0  0  0  0  0  0  0  0  0
   95.6013   53.8054  267.9884 H   0  0  0  0  0  0  0  0  0  0  0  0
   92.6351   53.0183  270.9606 H   0  0  0  0  0  0  0  0  0  0  0  0
   92.1648   50.8246  269.9119 H   0  0  0  0  0  0  0  0  0  0  0  0
   91.4195   47.5190  264.0105 H   0  0  0  0  0  0  0  0  0  0  0  0
   88.2311   45.4051  262.3255 H   0  0  0  0  0  0  0  0  0  0  0  0
   86.8998   45.6491  264.3789 H   0  0  0  0  0  0  0  0  0  0  0  0
   87.9653   47.7374  265.0406 H   0  0  0  0  0  0  0  0  0  0  0  0
   87.8789   45.5702  268.9816 H   0  0  0  0  0  0  0  0  0  0  0  0
   88.3330   44.6321  267.5186 H   0  0  0  0  0  0  0  0  0  0  0  0
   89.4176   45.9283  268.1269 H   0  0  0  0  0  0  0  0  0  0  0  0
   93.8301   54.8944  270.9337 H   0  0  0  0  0  0  0  0  0  0  0  0
  1  4  1  0  0  0  0
  1  6  1  0  0  0  0
  1 11  2  0  0  0  0
  2  3  1  0  0  0  0
  2  5  1  0  0  0  0
  3  4  2  0  0  0  0
  3 17  1  0  0  0  0
  5  6  2  0  0  0  0
  5 10  1  0  0  0  0
  6  7  1  0  0  0  0
  7  8  2  0  0  0  0
  8  9  1  0  0  0  0
  9 10  2  0  0  0  0
 11 12  1  0  0  0  0
 11 16  1  0  0  0  0
 12 13  2  0  0  0  0
 13 14  1  0  0  0  0
 14 15  1  0  0  0  0
 14 28  2  0  0  0  0
 15 16  2  0  0  0  0
 17 18  2  0  0  0  0
 18 19  1  0  0  0  0
 18 23  1  0  0  0  0
 19 20  2  0  0  0  0
 20 21  1  0  0  0  0
 21 22  2  0  0  0  0
 22 23  1  0  0  0  0
 23 24  1  0  0  0  0
 24 25  2  0  0  0  0
 24 26  2  0  0  0  0
 24 27  1  0  0  0  0
  2 29  1  0  0  0  0
  2 30  1  0  0  0  0
  4 31  1  0  0  0  0
  8 32  1  0  0  0  0
  9 33  1  0  0  0  0
 12 34  1  0  0  0  0
 13 35  1  0  0  0  0
 15 36  1  0  0  0  0
 16 37  1  0  0  0  0
 19 38  1  0  0  0  0
 21 39  1  0  0  0  0
 22 40  1  0  0  0  0
 23 41  1  0  0  0  0
 27 42  1  0  0  0  0
 27 43  1  0  0  0  0
 27 44  1  0  0  0  0
 28 45  1  0  0  0  0
M  END
> <ID>
49

> <IC50[uM]>
1.528

$$$$
49
  -OEChem-05192314313D
 Structure written by MMmdl.
 45 48  0     1  0  0  0  0  0999 V2000
   93.2820   49.7787  267.6942 C   0  0  0  0  0  0  0  0  0  0  0  0
   92.5593   47.3370  266.4888 C   0  0  0  0  0  0  0  0  0  0  0  0
   91.6047   48.3296  266.6732 C   0  0  0  0  0  0  0  0  0  0  0  0
   91.9709   49.5231  267.2782 C   0  0  0  0  0  0  0  0  0  0  0  0
   93.8953   47.5304  266.9261 C   0  0  0  0  0  0  0  0  0  0  0  0
   94.2750   48.7673  267.5290 C   0  0  0  0  0  0  0  0  0  0  0  0
   95.5619   48.9626  267.9535 N   0  0  0  0  0  0  0  0  0  0  0  0
   96.4516   47.9533  267.7695 C   0  0  0  0  0  0  0  0  0  0  0  0
   96.0598   46.7392  267.2106 C   0  0  0  0  0  0  0  0  0  0  0  0
   94.7989   46.5188  266.7897 N   0  0  0  0  0  0  0  0  0  0  0  0
   93.5952   51.0844  268.3313 C   0  0  0  0  0  0  0  0  0  0  0  0
   94.5719   51.9301  267.7852 C   0  0  0  0  0  0  0  0  0  0  0  0
   94.8427   53.1540  268.3966 C   0  0  0  0  0  0  0  0  0  0  0  0
   94.1433   53.5318  269.5201 C   0  0  0  0  0  0  0  0  0  0  0  0
   93.1746   52.7091  270.0775 C   0  0  0  0  0  0  0  0  0  0  0  0
   92.9084   51.4788  269.4813 C   0  0  0  0  0  0  0  0  0  0  0  0
   90.2697   48.1106  266.3099 N   0  0  0  0  0  0  0  0  0  0  0  0
   89.7103   47.3327  265.2784 C   0  0  0  0  0  0  0  0  0  0  0  0
   90.4172   47.1253  264.0922 C   0  0  0  0  0  0  0  0  0  0  0  0
   89.8957   46.4495  263.0389 N   0  0  0  0  0  0  0  0  0  0  0  0
   88.6529   45.9439  263.1611 C   0  0  0  0  0  0  0  0  0  0  0  0
   87.8862   46.0847  264.3178 C   0  0  0  0  0  0  0  0  0  0  0  0
   88.4170   46.8009  265.3996 C   0  0  3  0  0  0  0  0  0  0  0  0
   87.4738   46.8803  266.9122 S   0  0  0  0  0  0  0  0  0  0  0  0
   86.1325   46.4072  266.6648 O   0  0  0  0  0  0  0  0  0  0  0  0
   87.6872   48.2303  267.4905 O   0  0  0  0  0  0  0  0  0  0  0  0
   88.3692   45.6214  267.9982 C   0  0  0  0  0  0  0  0  0  0  0  0
   94.4021   54.7489  270.1265 N   0  0  0  0  0  0  0  0  0  0  0  0
   92.2821   46.4103  266.0085 H   0  0  0  0  0  0  0  0  0  0  0  0
   91.3408   49.6182  268.1748 H   0  0  0  0  0  0  0  0  0  0  0  0
   91.7151   50.3198  266.5641 H   0  0  0  0  0  0  0  0  0  0  0  0
   97.4816   48.0946  268.0618 H   0  0  0  0  0  0  0  0  0  0  0  0
   96.7897   45.9494  267.1115 H   0  0  0  0  0  0  0  0  0  0  0  0
   95.1108   51.6354  266.8969 H   0  0  0  0  0  0  0  0  0  0  0  0
   95.6013   53.8054  267.9884 H   0  0  0  0  0  0  0  0  0  0  0  0
   92.6351   53.0183  270.9606 H   0  0  0  0  0  0  0  0  0  0  0  0
   92.1648   50.8246  269.9119 H   0  0  0  0  0  0  0  0  0  0  0  0
   91.4195   47.5190  264.0105 H   0  0  0  0  0  0  0  0  0  0  0  0
   88.2311   45.4051  262.3255 H   0  0  0  0  0  0  0  0  0  0  0  0
   86.8998   45.6491  264.3789 H   0  0  0  0  0  0  0  0  0  0  0  0
   87.9653   47.7374  265.0406 H   0  0  0  0  0  0  0  0  0  0  0  0
   87.8789   45.5702  268.9816 H   0  0  0  0  0  0  0  0  0  0  0  0
   88.3330   44.6321  267.5186 H   0  0  0  0  0  0  0  0  0  0  0  0
   89.4176   45.9283  268.1269 H   0  0  0  0  0  0  0  0  0  0  0  0
   93.8301   54.8944  270.9337 H   0  0  0  0  0  0  0  0  0  0  0  0
  1  4  1  0  0  0  0
  1  6  1  0  0  0  0
  1 11  2  0  0  0  0
  2  3  2  0  0  0  0
  2  5  1  0  0  0  0
  3  4  1  0  0  0  0
  3 17  1  0  0  0  0
  5  6  2  0  0  0  0
  5 10  1  0  0  0  0
  6  7  1  0  0  0  0
  7  8  2  0  0  0  0
  8  9  1  0  0  0  0
  9 10  2  0  0  0  0
 11 12  1  0  0  0  0
 11 16  1  0  0  0  0
 12 13  2  0  0  0  0
 13 14  1  0  0  0  0
 14 15  1  0  0  0  0
 14 28  2  0  0  0  0
 15 16  2  0  0  0  0
 17 18  2  0  0  0  0
 18 19  1  0  0  0  0
 18 23  1  0  0  0  0
 19 20  2  0  0  0  0
 20 21  1  0  0  0  0
 21 22  2  0  0  0  0
 22 23  1  0  0  0  0
 23 24  1  0  0  0  0
 24 25  2  0  0  0  0
 24 26  2  0  0  0  0
 24 27  1  0  0  0  0
  2 29  1  0  0  0  0
  4 30  1  0  0  0  0
  4 31  1  0  0  0  0
  8 32  1  0  0  0  0
  9 33  1  0  0  0  0
 12 34  1  0  0  0  0
 13 35  1  0  0  0  0
 15 36  1  0  0  0  0
 16 37  1  0  0  0  0
 19 38  1  0  0  0  0
 21 39  1  0  0  0  0
 22 40  1  0  0  0  0
 23 41  1  0  0  0  0
 27 42  1  0  0  0  0
 27 43  1  0  0  0  0
 27 44  1  0  0  0  0
 28 45  1  0  0  0  0
M  END
> <ID>
49

> <IC50[uM]>
1.528

$$$$
49
  -OEChem-05192314313D
 Structure written by MMmdl.
 45 48  0     0  0  0  0  0  0999 V2000
   93.2820   49.7787  267.6942 C   0  0  0  0  0  0  0  0  0  0  0  0
   92.5593   47.3370  266.4888 C   0  0  0  0  0  0  0  0  0  0  0  0
   91.6047   48.3296  266.6732 C   0  0  0  0  0  0  0  0  0  0  0  0
   91.9709   49.5231  267.2782 C   0  0  0  0  0  0  0  0  0  0  0  0
   93.8953   47.5304  266.9261 C   0  0  0  0  0  0  0  0  0  0  0  0
   94.2750   48.7673  267.5290 C   0  0  0  0  0  0  0  0  0  0  0  0
   95.5619   48.9626  267.9535 N   0  0  0  0  0  0  0  0  0  0  0  0
   96.4516   47.9533  267.7695 C   0  0  0  0  0  0  0  0  0  0  0  0
   96.0598   46.7392  267.2106 C   0  0  0  0  0  0  0  0  0  0  0  0
   94.7989   46.5188  266.7897 N   0  0  0  0  0  0  0  0  0  0  0  0
   93.5952   51.0844  268.3313 C   0  0  0  0  0  0  0  0  0  0  0  0
   94.5719   51.9301  267.7852 C   0  0  0  0  0  0  0  0  0  0  0  0
   94.8427   53.1540  268.3966 C   0  0  0  0  0  0  0  0  0  0  0  0
   94.1433   53.5318  269.5201 C   0  0  0  0  0  0  0  0  0  0  0  0
   93.1746   52.7091  270.0775 C   0  0  0  0  0  0  0  0  0  0  0  0
   92.9084   51.4788  269.4813 C   0  0  0  0  0  0  0  0  0  0  0  0
   90.2697   48.1106  266.3099 N   0  0  0  0  0  0  0  0  0  0  0  0
   89.7103   47.3327  265.2784 C   0  0  0  0  0  0  0  0  0  0  0  0
   90.4172   47.1253  264.0922 C   0  0  0  0  0  0  0  0  0  0  0  0
   89.8957   46.4495  263.0389 N   0  0  0  0  0  0  0  0  0  0  0  0
   88.6529   45.9439  263.1611 C   0  0  0  0  0  0  0  0  0  0  0  0
   87.8862   46.0847  264.3178 C   0  0  0  0  0  0  0  0  0  0  0  0
   88.4170   46.8009  265.3996 C   0  0  0  0  0  0  0  0  0  0  0  0
   87.4738   46.8803  266.9122 S   0  0  0  0  0  0  0  0  0  0  0  0
   86.1325   46.4072  266.6648 O   0  0  0  0  0  0  0  0  0  0  0  0
   87.6872   48.2303  267.4905 O   0  0  0  0  0  0  0  0  0  0  0  0
   88.3692   45.6214  267.9982 C   0  0  0  0  0  0  0  0  0  0  0  0
   94.4021   54.7489  270.1265 N   0  0  0  0  0  0  0  0  0  0  0  0
   92.1855   46.4408  267.0057 H   0  0  0  0  0  0  0  0  0  0  0  0
   92.6071   47.1432  265.4070 H   0  0  0  0  0  0  0  0  0  0  0  0
   91.2177   50.2813  267.4335 H   0  0  0  0  0  0  0  0  0  0  0  0
   97.4816   48.0946  268.0618 H   0  0  0  0  0  0  0  0  0  0  0  0
   96.7897   45.9494  267.1115 H   0  0  0  0  0  0  0  0  0  0  0  0
   95.1108   51.6354  266.8969 H   0  0  0  0  0  0  0  0  0  0  0  0
   95.6013   53.8054  267.9884 H   0  0  0  0  0  0  0  0  0  0  0  0
   92.6351   53.0183  270.9606 H   0  0  0  0  0  0  0  0  0  0  0  0
   92.1648   50.8246  269.9119 H   0  0  0  0  0  0  0  0  0  0  0  0
   91.4195   47.5190  264.0105 H   0  0  0  0  0  0  0  0  0  0  0  0
   88.0619   46.3927  262.3492 H   0  0  0  0  0  0  0  0  0  0  0  0
   88.7479   44.8614  262.9903 H   0  0  0  0  0  0  0  0  0  0  0  0
   86.8998   45.6491  264.3789 H   0  0  0  0  0  0  0  0  0  0  0  0
   87.8789   45.5702  268.9816 H   0  0  0  0  0  0  0  0  0  0  0  0
   88.3330   44.6321  267.5186 H   0  0  0  0  0  0  0  0  0  0  0  0
   89.4176   45.9283  268.1269 H   0  0  0  0  0  0  0  0  0  0  0  0
   93.8301   54.8944  270.9337 H   0  0  0  0  0  0  0  0  0  0  0  0
  1  4  1  0  0  0  0
  1  6  1  0  0  0  0
  1 11  2  0  0  0  0
  2  3  1  0  0  0  0
  2  5  1  0  0  0  0
  3  4  2  0  0  0  0
  3 17  1  0  0  0  0
  5  6  2  0  0  0  0
  5 10  1  0  0  0  0
  6  7  1  0  0  0  0
  7  8  2  0  0  0  0
  8  9  1  0  0  0  0
  9 10  2  0  0  0  0
 11 12  1  0  0  0  0
 11 16  1  0  0  0  0
 12 13  2  0  0  0  0
 13 14  1  0  0  0  0
 14 15  1  0  0  0  0
 14 28  2  0  0  0  0
 15 16  2  0  0  0  0
 17 18  2  0  0  0  0
 18 19  1  0  0  0  0
 18 23  1  0  0  0  0
 19 20  2  0  0  0  0
 20 21  1  0  0  0  0
 21 22  1  0  0  0  0
 22 23  2  0  0  0  0
 23 24  1  0  0  0  0
 24 25  2  0  0  0  0
 24 26  2  0  0  0  0
 24 27  1  0  0  0  0
  2 29  1  0  0  0  0
  2 30  1  0  0  0  0
  4 31  1  0  0  0  0
  8 32  1  0  0  0  0
  9 33  1  0  0  0  0
 12 34  1  0  0  0  0
 13 35  1  0  0  0  0
 15 36  1  0  0  0  0
 16 37  1  0  0  0  0
 19 38  1  0  0  0  0
 21 39  1  0  0  0  0
 21 40  1  0  0  0  0
 22 41  1  0  0  0  0
 27 42  1  0  0  0  0
 27 43  1  0  0  0  0
 27 44  1  0  0  0  0
 28 45  1  0  0  0  0
M  END
> <ID>
49

> <IC50[uM]>
1.528

$$$$
49
  -OEChem-05192314313D
 Structure written by MMmdl.
 45 48  0     0  0  0  0  0  0999 V2000
   93.2820   49.7787  267.6942 C   0  0  0  0  0  0  0  0  0  0  0  0
   92.5593   47.3370  266.4888 C   0  0  0  0  0  0  0  0  0  0  0  0
   91.6047   48.3296  266.6732 C   0  0  0  0  0  0  0  0  0  0  0  0
   91.9709   49.5231  267.2782 C   0  0  0  0  0  0  0  0  0  0  0  0
   93.8953   47.5304  266.9261 C   0  0  0  0  0  0  0  0  0  0  0  0
   94.2750   48.7673  267.5290 C   0  0  0  0  0  0  0  0  0  0  0  0
   95.5619   48.9626  267.9535 N   0  0  0  0  0  0  0  0  0  0  0  0
   96.4516   47.9533  267.7695 C   0  0  0  0  0  0  0  0  0  0  0  0
   96.0598   46.7392  267.2106 C   0  0  0  0  0  0  0  0  0  0  0  0
   94.7989   46.5188  266.7897 N   0  0  0  0  0  0  0  0  0  0  0  0
   93.5952   51.0844  268.3313 C   0  0  0  0  0  0  0  0  0  0  0  0
   94.5719   51.9301  267.7852 C   0  0  0  0  0  0  0  0  0  0  0  0
   94.8427   53.1540  268.3966 C   0  0  0  0  0  0  0  0  0  0  0  0
   94.1433   53.5318  269.5201 C   0  0  0  0  0  0  0  0  0  0  0  0
   93.1746   52.7091  270.0775 C   0  0  0  0  0  0  0  0  0  0  0  0
   92.9084   51.4788  269.4813 C   0  0  0  0  0  0  0  0  0  0  0  0
   90.2697   48.1106  266.3099 N   0  0  0  0  0  0  0  0  0  0  0  0
   89.7103   47.3327  265.2784 C   0  0  0  0  0  0  0  0  0  0  0  0
   90.4172   47.1253  264.0922 C   0  0  0  0  0  0  0  0  0  0  0  0
   89.8957   46.4495  263.0389 N   0  0  0  0  0  0  0  0  0  0  0  0
   88.6529   45.9439  263.1611 C   0  0  0  0  0  0  0  0  0  0  0  0
   87.8862   46.0847  264.3178 C   0  0  0  0  0  0  0  0  0  0  0  0
   88.4170   46.8009  265.3996 C   0  0  0  0  0  0  0  0  0  0  0  0
   87.4738   46.8803  266.9122 S   0  0  0  0  0  0  0  0  0  0  0  0
   86.1325   46.4072  266.6648 O   0  0  0  0  0  0  0  0  0  0  0  0
   87.6872   48.2303  267.4905 O   0  0  0  0  0  0  0  0  0  0  0  0
   88.3692   45.6214  267.9982 C   0  0  0  0  0  0  0  0  0  0  0  0
   94.4021   54.7489  270.1265 N   0  0  0  0  0  0  0  0  0  0  0  0
   92.2821   46.4103  266.0085 H   0  0  0  0  0  0  0  0  0  0  0  0
   91.3408   49.6182  268.1748 H   0  0  0  0  0  0  0  0  0  0  0  0
   91.7151   50.3198  266.5641 H   0  0  0  0  0  0  0  0  0  0  0  0
   97.4816   48.0946  268.0618 H   0  0  0  0  0  0  0  0  0  0  0  0
   96.7897   45.9494  267.1115 H   0  0  0  0  0  0  0  0  0  0  0  0
   95.1108   51.6354  266.8969 H   0  0  0  0  0  0  0  0  0  0  0  0
   95.6013   53.8054  267.9884 H   0  0  0  0  0  0  0  0  0  0  0  0
   92.6351   53.0183  270.9606 H   0  0  0  0  0  0  0  0  0  0  0  0
   92.1648   50.8246  269.9119 H   0  0  0  0  0  0  0  0  0  0  0  0
   91.4195   47.5190  264.0105 H   0  0  0  0  0  0  0  0  0  0  0  0
   88.0619   46.3927  262.3492 H   0  0  0  0  0  0  0  0  0  0  0  0
   88.7479   44.8614  262.9903 H   0  0  0  0  0  0  0  0  0  0  0  0
   86.8998   45.6491  264.3789 H   0  0  0  0  0  0  0  0  0  0  0  0
   87.8789   45.5702  268.9816 H   0  0  0  0  0  0  0  0  0  0  0  0
   88.3330   44.6321  267.5186 H   0  0  0  0  0  0  0  0  0  0  0  0
   89.4176   45.9283  268.1269 H   0  0  0  0  0  0  0  0  0  0  0  0
   93.8301   54.8944  270.9337 H   0  0  0  0  0  0  0  0  0  0  0  0
  1  4  1  0  0  0  0
  1  6  1  0  0  0  0
  1 11  2  0  0  0  0
  2  3  2  0  0  0  0
  2  5  1  0  0  0  0
  3  4  1  0  0  0  0
  3 17  1  0  0  0  0
  5  6  2  0  0  0  0
  5 10  1  0  0  0  0
  6  7  1  0  0  0  0
  7  8  2  0  0  0  0
  8  9  1  0  0  0  0
  9 10  2  0  0  0  0
 11 12  1  0  0  0  0
 11 16  1  0  0  0  0
 12 13  2  0  0  0  0
 13 14  1  0  0  0  0
 14 15  1  0  0  0  0
 14 28  2  0  0  0  0
 15 16  2  0  0  0  0
 17 18  2  0  0  0  0
 18 19  1  0  0  0  0
 18 23  1  0  0  0  0
 19 20  2  0  0  0  0
 20 21  1  0  0  0  0
 21 22  1  0  0  0  0
 22 23  2  0  0  0  0
 23 24  1  0  0  0  0
 24 25  2  0  0  0  0
 24 26  2  0  0  0  0
 24 27  1  0  0  0  0
  2 29  1  0  0  0  0
  4 30  1  0  0  0  0
  4 31  1  0  0  0  0
  8 32  1  0  0  0  0
  9 33  1  0  0  0  0
 12 34  1  0  0  0  0
 13 35  1  0  0  0  0
 15 36  1  0  0  0  0
 16 37  1  0  0  0  0
 19 38  1  0  0  0  0
 21 39  1  0  0  0  0
 21 40  1  0  0  0  0
 22 41  1  0  0  0  0
 27 42  1  0  0  0  0
 27 43  1  0  0  0  0
 27 44  1  0  0  0  0
 28 45  1  0  0  0  0
M  END
> <ID>
49

> <IC50[uM]>
1.528

$$$$
49
  -OEChem-05192314313D
 Structure written by MMmdl.
 45 48  0     0  0  0  0  0  0999 V2000
   93.2820   49.7787  267.6942 C   0  0  0  0  0  0  0  0  0  0  0  0
   92.5593   47.3370  266.4888 C   0  0  0  0  0  0  0  0  0  0  0  0
   91.6047   48.3296  266.6732 C   0  0  0  0  0  0  0  0  0  0  0  0
   91.9709   49.5231  267.2782 C   0  0  0  0  0  0  0  0  0  0  0  0
   93.8953   47.5304  266.9261 C   0  0  0  0  0  0  0  0  0  0  0  0
   94.2750   48.7673  267.5290 C   0  0  0  0  0  0  0  0  0  0  0  0
   95.5619   48.9626  267.9535 N   0  0  0  0  0  0  0  0  0  0  0  0
   96.4516   47.9533  267.7695 C   0  0  0  0  0  0  0  0  0  0  0  0
   96.0598   46.7392  267.2106 C   0  0  0  0  0  0  0  0  0  0  0  0
   94.7989   46.5188  266.7897 N   0  0  0  0  0  0  0  0  0  0  0  0
   93.5952   51.0844  268.3313 C   0  0  0  0  0  0  0  0  0  0  0  0
   94.5719   51.9301  267.7852 C   0  0  0  0  0  0  0  0  0  0  0  0
   94.8427   53.1540  268.3966 C   0  0  0  0  0  0  0  0  0  0  0  0
   94.1433   53.5318  269.5201 C   0  0  0  0  0  0  0  0  0  0  0  0
   93.1746   52.7091  270.0775 C   0  0  0  0  0  0  0  0  0  0  0  0
   92.9084   51.4788  269.4813 C   0  0  0  0  0  0  0  0  0  0  0  0
   90.2697   48.1106  266.3099 N   0  0  0  0  0  0  0  0  0  0  0  0
   89.7103   47.3327  265.2784 C   0  0  0  0  0  0  0  0  0  0  0  0
   90.4172   47.1253  264.0922 C   0  0  0  0  0  0  0  0  0  0  0  0
   89.8957   46.4495  263.0389 N   0  0  0  0  0  0  0  0  0  0  0  0
   88.6529   45.9439  263.1611 C   0  0  0  0  0  0  0  0  0  0  0  0
   87.8862   46.0847  264.3178 C   0  0  0  0  0  0  0  0  0  0  0  0
   88.4170   46.8009  265.3996 C   0  0  0  0  0  0  0  0  0  0  0  0
   87.4738   46.8803  266.9122 S   0  0  0  0  0  0  0  0  0  0  0  0
   86.1325   46.4072  266.6648 O   0  0  0  0  0  0  0  0  0  0  0  0
   87.6872   48.2303  267.4905 O   0  0  0  0  0  0  0  0  0  0  0  0
   88.3692   45.6214  267.9982 C   0  0  0  0  0  0  0  0  0  0  0  0
   94.4021   54.7489  270.1265 N   0  0  0  0  0  0  0  0  0  0  0  0
   92.1855   46.4408  267.0057 H   0  0  0  0  0  0  0  0  0  0  0  0
   92.6071   47.1432  265.4070 H   0  0  0  0  0  0  0  0  0  0  0  0
   91.2177   50.2813  267.4335 H   0  0  0  0  0  0  0  0  0  0  0  0
   97.4816   48.0946  268.0618 H   0  0  0  0  0  0  0  0  0  0  0  0
   96.7897   45.9494  267.1115 H   0  0  0  0  0  0  0  0  0  0  0  0
   95.1108   51.6354  266.8969 H   0  0  0  0  0  0  0  0  0  0  0  0
   95.6013   53.8054  267.9884 H   0  0  0  0  0  0  0  0  0  0  0  0
   92.6351   53.0183  270.9606 H   0  0  0  0  0  0  0  0  0  0  0  0
   92.1648   50.8246  269.9119 H   0  0  0  0  0  0  0  0  0  0  0  0
   90.6781   48.1248  263.7141 H   0  0  0  0  0  0  0  0  0  0  0  0
   91.3352   46.5889  264.3742 H   0  0  0  0  0  0  0  0  0  0  0  0
   88.2311   45.4051  262.3255 H   0  0  0  0  0  0  0  0  0  0  0  0
   86.8998   45.6491  264.3789 H   0  0  0  0  0  0  0  0  0  0  0  0
   87.8789   45.5702  268.9816 H   0  0  0  0  0  0  0  0  0  0  0  0
   88.3330   44.6321  267.5186 H   0  0  0  0  0  0  0  0  0  0  0  0
   89.4176   45.9283  268.1269 H   0  0  0  0  0  0  0  0  0  0  0  0
   93.8301   54.8944  270.9337 H   0  0  0  0  0  0  0  0  0  0  0  0
  1  4  1  0  0  0  0
  1  6  1  0  0  0  0
  1 11  2  0  0  0  0
  2  3  1  0  0  0  0
  2  5  1  0  0  0  0
  3  4  2  0  0  0  0
  3 17  1  0  0  0  0
  5  6  2  0  0  0  0
  5 10  1  0  0  0  0
  6  7  1  0  0  0  0
  7  8  2  0  0  0  0
  8  9  1  0  0  0  0
  9 10  2  0  0  0  0
 11 12  1  0  0  0  0
 11 16  1  0  0  0  0
 12 13  2  0  0  0  0
 13 14  1  0  0  0  0
 14 15  1  0  0  0  0
 14 28  2  0  0  0  0
 15 16  2  0  0  0  0
 17 18  2  0  0  0  0
 18 19  1  0  0  0  0
 18 23  1  0  0  0  0
 19 20  1  0  0  0  0
 20 21  2  0  0  0  0
 21 22  1  0  0  0  0
 22 23  2  0  0  0  0
 23 24  1  0  0  0  0
 24 25  2  0  0  0  0
 24 26  2  0  0  0  0
 24 27  1  0  0  0  0
  2 29  1  0  0  0  0
  2 30  1  0  0  0  0
  4 31  1  0  0  0  0
  8 32  1  0  0  0  0
  9 33  1  0  0  0  0
 12 34  1  0  0  0  0
 13 35  1  0  0  0  0
 15 36  1  0  0  0  0
 16 37  1  0  0  0  0
 19 38  1  0  0  0  0
 19 39  1  0  0  0  0
 21 40  1  0  0  0  0
 22 41  1  0  0  0  0
 27 42  1  0  0  0  0
 27 43  1  0  0  0  0
 27 44  1  0  0  0  0
 28 45  1  0  0  0  0
M  END
> <ID>
49

> <IC50[uM]>
1.528

$$$$
49
  -OEChem-05192314313D
 Structure written by MMmdl.
 45 48  0     0  0  0  0  0  0999 V2000
   93.2820   49.7787  267.6942 C   0  0  0  0  0  0  0  0  0  0  0  0
   92.5593   47.3370  266.4888 C   0  0  0  0  0  0  0  0  0  0  0  0
   91.6047   48.3296  266.6732 C   0  0  0  0  0  0  0  0  0  0  0  0
   91.9709   49.5231  267.2782 C   0  0  0  0  0  0  0  0  0  0  0  0
   93.8953   47.5304  266.9261 C   0  0  0  0  0  0  0  0  0  0  0  0
   94.2750   48.7673  267.5290 C   0  0  0  0  0  0  0  0  0  0  0  0
   95.5619   48.9626  267.9535 N   0  0  0  0  0  0  0  0  0  0  0  0
   96.4516   47.9533  267.7695 C   0  0  0  0  0  0  0  0  0  0  0  0
   96.0598   46.7392  267.2106 C   0  0  0  0  0  0  0  0  0  0  0  0
   94.7989   46.5188  266.7897 N   0  0  0  0  0  0  0  0  0  0  0  0
   93.5952   51.0844  268.3313 C   0  0  0  0  0  0  0  0  0  0  0  0
   94.5719   51.9301  267.7852 C   0  0  0  0  0  0  0  0  0  0  0  0
   94.8427   53.1540  268.3966 C   0  0  0  0  0  0  0  0  0  0  0  0
   94.1433   53.5318  269.5201 C   0  0  0  0  0  0  0  0  0  0  0  0
   93.1746   52.7091  270.0775 C   0  0  0  0  0  0  0  0  0  0  0  0
   92.9084   51.4788  269.4813 C   0  0  0  0  0  0  0  0  0  0  0  0
   90.2697   48.1106  266.3099 N   0  0  0  0  0  0  0  0  0  0  0  0
   89.7103   47.3327  265.2784 C   0  0  0  0  0  0  0  0  0  0  0  0
   90.4172   47.1253  264.0922 C   0  0  0  0  0  0  0  0  0  0  0  0
   89.8957   46.4495  263.0389 N   0  0  0  0  0  0  0  0  0  0  0  0
   88.6529   45.9439  263.1611 C   0  0  0  0  0  0  0  0  0  0  0  0
   87.8862   46.0847  264.3178 C   0  0  0  0  0  0  0  0  0  0  0  0
   88.4170   46.8009  265.3996 C   0  0  0  0  0  0  0  0  0  0  0  0
   87.4738   46.8803  266.9122 S   0  0  0  0  0  0  0  0  0  0  0  0
   86.1325   46.4072  266.6648 O   0  0  0  0  0  0  0  0  0  0  0  0
   87.6872   48.2303  267.4905 O   0  0  0  0  0  0  0  0  0  0  0  0
   88.3692   45.6214  267.9982 C   0  0  0  0  0  0  0  0  0  0  0  0
   94.4021   54.7489  270.1265 N   0  0  0  0  0  0  0  0  0  0  0  0
   92.2821   46.4103  266.0085 H   0  0  0  0  0  0  0  0  0  0  0  0
   91.3408   49.6182  268.1748 H   0  0  0  0  0  0  0  0  0  0  0  0
   91.7151   50.3198  266.5641 H   0  0  0  0  0  0  0  0  0  0  0  0
   97.4816   48.0946  268.0618 H   0  0  0  0  0  0  0  0  0  0  0  0
   96.7897   45.9494  267.1115 H   0  0  0  0  0  0  0  0  0  0  0  0
   95.1108   51.6354  266.8969 H   0  0  0  0  0  0  0  0  0  0  0  0
   95.6013   53.8054  267.9884 H   0  0  0  0  0  0  0  0  0  0  0  0
   92.6351   53.0183  270.9606 H   0  0  0  0  0  0  0  0  0  0  0  0
   92.1648   50.8246  269.9119 H   0  0  0  0  0  0  0  0  0  0  0  0
   90.6781   48.1248  263.7141 H   0  0  0  0  0  0  0  0  0  0  0  0
   91.3352   46.5889  264.3742 H   0  0  0  0  0  0  0  0  0  0  0  0
   88.2311   45.4051  262.3255 H   0  0  0  0  0  0  0  0  0  0  0  0
   86.8998   45.6491  264.3789 H   0  0  0  0  0  0  0  0  0  0  0  0
   87.8789   45.5702  268.9816 H   0  0  0  0  0  0  0  0  0  0  0  0
   88.3330   44.6321  267.5186 H   0  0  0  0  0  0  0  0  0  0  0  0
   89.4176   45.9283  268.1269 H   0  0  0  0  0  0  0  0  0  0  0  0
   93.8301   54.8944  270.9337 H   0  0  0  0  0  0  0  0  0  0  0  0
  1  4  1  0  0  0  0
  1  6  1  0  0  0  0
  1 11  2  0  0  0  0
  2  3  2  0  0  0  0
  2  5  1  0  0  0  0
  3  4  1  0  0  0  0
  3 17  1  0  0  0  0
  5  6  2  0  0  0  0
  5 10  1  0  0  0  0
  6  7  1  0  0  0  0
  7  8  2  0  0  0  0
  8  9  1  0  0  0  0
  9 10  2  0  0  0  0
 11 12  1  0  0  0  0
 11 16  1  0  0  0  0
 12 13  2  0  0  0  0
 13 14  1  0  0  0  0
 14 15  1  0  0  0  0
 14 28  2  0  0  0  0
 15 16  2  0  0  0  0
 17 18  2  0  0  0  0
 18 19  1  0  0  0  0
 18 23  1  0  0  0  0
 19 20  1  0  0  0  0
 20 21  2  0  0  0  0
 21 22  1  0  0  0  0
 22 23  2  0  0  0  0
 23 24  1  0  0  0  0
 24 25  2  0  0  0  0
 24 26  2  0  0  0  0
 24 27  1  0  0  0  0
  2 29  1  0  0  0  0
  4 30  1  0  0  0  0
  4 31  1  0  0  0  0
  8 32  1  0  0  0  0
  9 33  1  0  0  0  0
 12 34  1  0  0  0  0
 13 35  1  0  0  0  0
 15 36  1  0  0  0  0
 16 37  1  0  0  0  0
 19 38  1  0  0  0  0
 19 39  1  0  0  0  0
 21 40  1  0  0  0  0
 22 41  1  0  0  0  0
 27 42  1  0  0  0  0
 27 43  1  0  0  0  0
 27 44  1  0  0  0  0
 28 45  1  0  0  0  0
M  END
> <ID>
49

> <IC50[uM]>
1.528

$$$$
49
  -OEChem-05192314313D
 Structure written by MMmdl.
 45 48  0     1  0  0  0  0  0999 V2000
   93.2820   49.7787  267.6942 C   0  0  0  0  0  0  0  0  0  0  0  0
   92.5593   47.3370  266.4888 C   0  0  0  0  0  0  0  0  0  0  0  0
   91.6047   48.3296  266.6732 C   0  0  0  0  0  0  0  0  0  0  0  0
   91.9709   49.5231  267.2782 C   0  0  0  0  0  0  0  0  0  0  0  0
   93.8953   47.5304  266.9261 C   0  0  0  0  0  0  0  0  0  0  0  0
   94.2750   48.7673  267.5290 C   0  0  3  0  0  0  0  0  0  0  0  0
   95.5619   48.9626  267.9535 N   0  0  0  0  0  0  0  0  0  0  0  0
   96.4516   47.9533  267.7695 C   0  0  0  0  0  0  0  0  0  0  0  0
   96.0598   46.7392  267.2106 C   0  0  0  0  0  0  0  0  0  0  0  0
   94.7989   46.5188  266.7897 N   0  0  0  0  0  0  0  0  0  0  0  0
   93.5952   51.0844  268.3313 C   0  0  0  0  0  0  0  0  0  0  0  0
   94.5719   51.9301  267.7852 C   0  0  0  0  0  0  0  0  0  0  0  0
   94.8427   53.1540  268.3966 C   0  0  0  0  0  0  0  0  0  0  0  0
   94.1433   53.5318  269.5201 C   0  0  0  0  0  0  0  0  0  0  0  0
   93.1746   52.7091  270.0775 C   0  0  0  0  0  0  0  0  0  0  0  0
   92.9084   51.4788  269.4813 C   0  0  0  0  0  0  0  0  0  0  0  0
   90.2697   48.1106  266.3099 N   0  0  0  0  0  0  0  0  0  0  0  0
   89.7103   47.3327  265.2784 C   0  0  0  0  0  0  0  0  0  0  0  0
   90.4172   47.1253  264.0922 C   0  0  0  0  0  0  0  0  0  0  0  0
   89.8957   46.4495  263.0389 N   0  0  0  0  0  0  0  0  0  0  0  0
   88.6529   45.9439  263.1611 C   0  0  0  0  0  0  0  0  0  0  0  0
   87.8862   46.0847  264.3178 C   0  0  0  0  0  0  0  0  0  0  0  0
   88.4170   46.8009  265.3996 C   0  0  3  0  0  0  0  0  0  0  0  0
   87.4738   46.8803  266.9122 S   0  0  0  0  0  0  0  0  0  0  0  0
   86.1325   46.4072  266.6648 O   0  0  0  0  0  0  0  0  0  0  0  0
   87.6872   48.2303  267.4905 O   0  0  0  0  0  0  0  0  0  0  0  0
   88.3692   45.6214  267.9982 C   0  0  0  0  0  0  0  0  0  0  0  0
   94.4021   54.7489  270.1265 N   0  0  0  0  0  0  0  0  0  0  0  0
   92.2821   46.4103  266.0085 H   0  0  0  0  0  0  0  0  0  0  0  0
   91.2177   50.2813  267.4335 H   0  0  0  0  0  0  0  0  0  0  0  0
   94.5335   49.1754  266.5407 H   0  0  0  0  0  0  0  0  0  0  0  0
   97.4816   48.0946  268.0618 H   0  0  0  0  0  0  0  0  0  0  0  0
   96.7897   45.9494  267.1115 H   0  0  0  0  0  0  0  0  0  0  0  0
   95.1108   51.6354  266.8969 H   0  0  0  0  0  0  0  0  0  0  0  0
   95.6013   53.8054  267.9884 H   0  0  0  0  0  0  0  0  0  0  0  0
   92.6351   53.0183  270.9606 H   0  0  0  0  0  0  0  0  0  0  0  0
   92.1648   50.8246  269.9119 H   0  0  0  0  0  0  0  0  0  0  0  0
   91.4195   47.5190  264.0105 H   0  0  0  0  0  0  0  0  0  0  0  0
   88.2311   45.4051  262.3255 H   0  0  0  0  0  0  0  0  0  0  0  0
   86.8998   45.6491  264.3789 H   0  0  0  0  0  0  0  0  0  0  0  0
   87.9653   47.7374  265.0406 H   0  0  0  0  0  0  0  0  0  0  0  0
   87.8789   45.5702  268.9816 H   0  0  0  0  0  0  0  0  0  0  0  0
   88.3330   44.6321  267.5186 H   0  0  0  0  0  0  0  0  0  0  0  0
   89.4176   45.9283  268.1269 H   0  0  0  0  0  0  0  0  0  0  0  0
   93.8301   54.8944  270.9337 H   0  0  0  0  0  0  0  0  0  0  0  0
  1  4  1  0  0  0  0
  1  6  1  0  0  0  0
  1 11  2  0  0  0  0
  2  3  1  0  0  0  0
  2  5  2  0  0  0  0
  3  4  2  0  0  0  0
  3 17  1  0  0  0  0
  5  6  1  0  0  0  0
  5 10  1  0  0  0  0
  6  7  1  0  0  0  0
  7  8  2  0  0  0  0
  8  9  1  0  0  0  0
  9 10  2  0  0  0  0
 11 12  1  0  0  0  0
 11 16  1  0  0  0  0
 12 13  2  0  0  0  0
 13 14  1  0  0  0  0
 14 15  1  0  0  0  0
 14 28  2  0  0  0  0
 15 16  2  0  0  0  0
 17 18  2  0  0  0  0
 18 19  1  0  0  0  0
 18 23  1  0  0  0  0
 19 20  2  0  0  0  0
 20 21  1  0  0  0  0
 21 22  2  0  0  0  0
 22 23  1  0  0  0  0
 23 24  1  0  0  0  0
 24 25  2  0  0  0  0
 24 26  2  0  0  0  0
 24 27  1  0  0  0  0
  2 29  1  0  0  0  0
  4 30  1  0  0  0  0
  6 31  1  0  0  0  0
  8 32  1  0  0  0  0
  9 33  1  0  0  0  0
 12 34  1  0  0  0  0
 13 35  1  0  0  0  0
 15 36  1  0  0  0  0
 16 37  1  0  0  0  0
 19 38  1  0  0  0  0
 21 39  1  0  0  0  0
 22 40  1  0  0  0  0
 23 41  1  0  0  0  0
 27 42  1  0  0  0  0
 27 43  1  0  0  0  0
 27 44  1  0  0  0  0
 28 45  1  0  0  0  0
M  END
> <ID>
49

> <IC50[uM]>
1.528

$$$$
49
  -OEChem-05192314313D
 Structure written by MMmdl.
 45 48  0     1  0  0  0  0  0999 V2000
   93.2820   49.7787  267.6942 C   0  0  0  0  0  0  0  0  0  0  0  0
   92.5593   47.3370  266.4888 C   0  0  0  0  0  0  0  0  0  0  0  0
   91.6047   48.3296  266.6732 C   0  0  0  0  0  0  0  0  0  0  0  0
   91.9709   49.5231  267.2782 C   0  0  0  0  0  0  0  0  0  0  0  0
   93.8953   47.5304  266.9261 C   0  0  0  0  0  0  0  0  0  0  0  0
   94.2750   48.7673  267.5290 C   0  0  3  0  0  0  0  0  0  0  0  0
   95.5619   48.9626  267.9535 N   0  0  0  0  0  0  0  0  0  0  0  0
   96.4516   47.9533  267.7695 C   0  0  0  0  0  0  0  0  0  0  0  0
   96.0598   46.7392  267.2106 C   0  0  0  0  0  0  0  0  0  0  0  0
   94.7989   46.5188  266.7897 N   0  0  0  0  0  0  0  0  0  0  0  0
   93.5952   51.0844  268.3313 C   0  0  0  0  0  0  0  0  0  0  0  0
   94.5719   51.9301  267.7852 C   0  0  0  0  0  0  0  0  0  0  0  0
   94.8427   53.1540  268.3966 C   0  0  0  0  0  0  0  0  0  0  0  0
   94.1433   53.5318  269.5201 C   0  0  0  0  0  0  0  0  0  0  0  0
   93.1746   52.7091  270.0775 C   0  0  0  0  0  0  0  0  0  0  0  0
   92.9084   51.4788  269.4813 C   0  0  0  0  0  0  0  0  0  0  0  0
   90.2697   48.1106  266.3099 N   0  0  0  0  0  0  0  0  0  0  0  0
   89.7103   47.3327  265.2784 C   0  0  0  0  0  0  0  0  0  0  0  0
   90.4172   47.1253  264.0922 C   0  0  0  0  0  0  0  0  0  0  0  0
   89.8957   46.4495  263.0389 N   0  0  0  0  0  0  0  0  0  0  0  0
   88.6529   45.9439  263.1611 C   0  0  0  0  0  0  0  0  0  0  0  0
   87.8862   46.0847  264.3178 C   0  0  0  0  0  0  0  0  0  0  0  0
   88.4170   46.8009  265.3996 C   0  0  0  0  0  0  0  0  0  0  0  0
   87.4738   46.8803  266.9122 S   0  0  0  0  0  0  0  0  0  0  0  0
   86.1325   46.4072  266.6648 O   0  0  0  0  0  0  0  0  0  0  0  0
   87.6872   48.2303  267.4905 O   0  0  0  0  0  0  0  0  0  0  0  0
   88.3692   45.6214  267.9982 C   0  0  0  0  0  0  0  0  0  0  0  0
   94.4021   54.7489  270.1265 N   0  0  0  0  0  0  0  0  0  0  0  0
   92.2821   46.4103  266.0085 H   0  0  0  0  0  0  0  0  0  0  0  0
   91.2177   50.2813  267.4335 H   0  0  0  0  0  0  0  0  0  0  0  0
   94.5335   49.1754  266.5407 H   0  0  0  0  0  0  0  0  0  0  0  0
   97.4816   48.0946  268.0618 H   0  0  0  0  0  0  0  0  0  0  0  0
   96.7897   45.9494  267.1115 H   0  0  0  0  0  0  0  0  0  0  0  0
   95.1108   51.6354  266.8969 H   0  0  0  0  0  0  0  0  0  0  0  0
   95.6013   53.8054  267.9884 H   0  0  0  0  0  0  0  0  0  0  0  0
   92.6351   53.0183  270.9606 H   0  0  0  0  0  0  0  0  0  0  0  0
   92.1648   50.8246  269.9119 H   0  0  0  0  0  0  0  0  0  0  0  0
   91.4195   47.5190  264.0105 H   0  0  0  0  0  0  0  0  0  0  0  0
   88.0619   46.3927  262.3492 H   0  0  0  0  0  0  0  0  0  0  0  0
   88.7479   44.8614  262.9903 H   0  0  0  0  0  0  0  0  0  0  0  0
   86.8998   45.6491  264.3789 H   0  0  0  0  0  0  0  0  0  0  0  0
   87.8789   45.5702  268.9816 H   0  0  0  0  0  0  0  0  0  0  0  0
   88.3330   44.6321  267.5186 H   0  0  0  0  0  0  0  0  0  0  0  0
   89.4176   45.9283  268.1269 H   0  0  0  0  0  0  0  0  0  0  0  0
   93.8301   54.8944  270.9337 H   0  0  0  0  0  0  0  0  0  0  0  0
  1  4  1  0  0  0  0
  1  6  1  0  0  0  0
  1 11  2  0  0  0  0
  2  3  1  0  0  0  0
  2  5  2  0  0  0  0
  3  4  2  0  0  0  0
  3 17  1  0  0  0  0
  5  6  1  0  0  0  0
  5 10  1  0  0  0  0
  6  7  1  0  0  0  0
  7  8  2  0  0  0  0
  8  9  1  0  0  0  0
  9 10  2  0  0  0  0
 11 12  1  0  0  0  0
 11 16  1  0  0  0  0
 12 13  2  0  0  0  0
 13 14  1  0  0  0  0
 14 15  1  0  0  0  0
 14 28  2  0  0  0  0
 15 16  2  0  0  0  0
 17 18  2  0  0  0  0
 18 19  1  0  0  0  0
 18 23  1  0  0  0  0
 19 20  2  0  0  0  0
 20 21  1  0  0  0  0
 21 22  1  0  0  0  0
 22 23  2  0  0  0  0
 23 24  1  0  0  0  0
 24 25  2  0  0  0  0
 24 26  2  0  0  0  0
 24 27  1  0  0  0  0
  2 29  1  0  0  0  0
  4 30  1  0  0  0  0
  6 31  1  0  0  0  0
  8 32  1  0  0  0  0
  9 33  1  0  0  0  0
 12 34  1  0  0  0  0
 13 35  1  0  0  0  0
 15 36  1  0  0  0  0
 16 37  1  0  0  0  0
 19 38  1  0  0  0  0
 21 39  1  0  0  0  0
 21 40  1  0  0  0  0
 22 41  1  0  0  0  0
 27 42  1  0  0  0  0
 27 43  1  0  0  0  0
 27 44  1  0  0  0  0
 28 45  1  0  0  0  0
M  END
> <ID>
49

> <IC50[uM]>
1.528

$$$$
49
  -OEChem-05192314313D
 Structure written by MMmdl.
 45 48  0     1  0  0  0  0  0999 V2000
   93.2820   49.7787  267.6942 C   0  0  0  0  0  0  0  0  0  0  0  0
   92.5593   47.3370  266.4888 C   0  0  0  0  0  0  0  0  0  0  0  0
   91.6047   48.3296  266.6732 C   0  0  0  0  0  0  0  0  0  0  0  0
   91.9709   49.5231  267.2782 C   0  0  0  0  0  0  0  0  0  0  0  0
   93.8953   47.5304  266.9261 C   0  0  0  0  0  0  0  0  0  0  0  0
   94.2750   48.7673  267.5290 C   0  0  3  0  0  0  0  0  0  0  0  0
   95.5619   48.9626  267.9535 N   0  0  0  0  0  0  0  0  0  0  0  0
   96.4516   47.9533  267.7695 C   0  0  0  0  0  0  0  0  0  0  0  0
   96.0598   46.7392  267.2106 C   0  0  0  0  0  0  0  0  0  0  0  0
   94.7989   46.5188  266.7897 N   0  0  0  0  0  0  0  0  0  0  0  0
   93.5952   51.0844  268.3313 C   0  0  0  0  0  0  0  0  0  0  0  0
   94.5719   51.9301  267.7852 C   0  0  0  0  0  0  0  0  0  0  0  0
   94.8427   53.1540  268.3966 C   0  0  0  0  0  0  0  0  0  0  0  0
   94.1433   53.5318  269.5201 C   0  0  0  0  0  0  0  0  0  0  0  0
   93.1746   52.7091  270.0775 C   0  0  0  0  0  0  0  0  0  0  0  0
   92.9084   51.4788  269.4813 C   0  0  0  0  0  0  0  0  0  0  0  0
   90.2697   48.1106  266.3099 N   0  0  0  0  0  0  0  0  0  0  0  0
   89.7103   47.3327  265.2784 C   0  0  0  0  0  0  0  0  0  0  0  0
   90.4172   47.1253  264.0922 C   0  0  0  0  0  0  0  0  0  0  0  0
   89.8957   46.4495  263.0389 N   0  0  0  0  0  0  0  0  0  0  0  0
   88.6529   45.9439  263.1611 C   0  0  0  0  0  0  0  0  0  0  0  0
   87.8862   46.0847  264.3178 C   0  0  0  0  0  0  0  0  0  0  0  0
   88.4170   46.8009  265.3996 C   0  0  0  0  0  0  0  0  0  0  0  0
   87.4738   46.8803  266.9122 S   0  0  0  0  0  0  0  0  0  0  0  0
   86.1325   46.4072  266.6648 O   0  0  0  0  0  0  0  0  0  0  0  0
   87.6872   48.2303  267.4905 O   0  0  0  0  0  0  0  0  0  0  0  0
   88.3692   45.6214  267.9982 C   0  0  0  0  0  0  0  0  0  0  0  0
   94.4021   54.7489  270.1265 N   0  0  0  0  0  0  0  0  0  0  0  0
   92.2821   46.4103  266.0085 H   0  0  0  0  0  0  0  0  0  0  0  0
   91.2177   50.2813  267.4335 H   0  0  0  0  0  0  0  0  0  0  0  0
   94.5335   49.1754  266.5407 H   0  0  0  0  0  0  0  0  0  0  0  0
   97.4816   48.0946  268.0618 H   0  0  0  0  0  0  0  0  0  0  0  0
   96.7897   45.9494  267.1115 H   0  0  0  0  0  0  0  0  0  0  0  0
   95.1108   51.6354  266.8969 H   0  0  0  0  0  0  0  0  0  0  0  0
   95.6013   53.8054  267.9884 H   0  0  0  0  0  0  0  0  0  0  0  0
   92.6351   53.0183  270.9606 H   0  0  0  0  0  0  0  0  0  0  0  0
   92.1648   50.8246  269.9119 H   0  0  0  0  0  0  0  0  0  0  0  0
   90.6781   48.1248  263.7141 H   0  0  0  0  0  0  0  0  0  0  0  0
   91.3352   46.5889  264.3742 H   0  0  0  0  0  0  0  0  0  0  0  0
   88.2311   45.4051  262.3255 H   0  0  0  0  0  0  0  0  0  0  0  0
   86.8998   45.6491  264.3789 H   0  0  0  0  0  0  0  0  0  0  0  0
   87.8789   45.5702  268.9816 H   0  0  0  0  0  0  0  0  0  0  0  0
   88.3330   44.6321  267.5186 H   0  0  0  0  0  0  0  0  0  0  0  0
   89.4176   45.9283  268.1269 H   0  0  0  0  0  0  0  0  0  0  0  0
   93.8301   54.8944  270.9337 H   0  0  0  0  0  0  0  0  0  0  0  0
  1  4  1  0  0  0  0
  1  6  1  0  0  0  0
  1 11  2  0  0  0  0
  2  3  1  0  0  0  0
  2  5  2  0  0  0  0
  3  4  2  0  0  0  0
  3 17  1  0  0  0  0
  5  6  1  0  0  0  0
  5 10  1  0  0  0  0
  6  7  1  0  0  0  0
  7  8  2  0  0  0  0
  8  9  1  0  0  0  0
  9 10  2  0  0  0  0
 11 12  1  0  0  0  0
 11 16  1  0  0  0  0
 12 13  2  0  0  0  0
 13 14  1  0  0  0  0
 14 15  1  0  0  0  0
 14 28  2  0  0  0  0
 15 16  2  0  0  0  0
 17 18  2  0  0  0  0
 18 19  1  0  0  0  0
 18 23  1  0  0  0  0
 19 20  1  0  0  0  0
 20 21  2  0  0  0  0
 21 22  1  0  0  0  0
 22 23  2  0  0  0  0
 23 24  1  0  0  0  0
 24 25  2  0  0  0  0
 24 26  2  0  0  0  0
 24 27  1  0  0  0  0
  2 29  1  0  0  0  0
  4 30  1  0  0  0  0
  6 31  1  0  0  0  0
  8 32  1  0  0  0  0
  9 33  1  0  0  0  0
 12 34  1  0  0  0  0
 13 35  1  0  0  0  0
 15 36  1  0  0  0  0
 16 37  1  0  0  0  0
 19 38  1  0  0  0  0
 19 39  1  0  0  0  0
 21 40  1  0  0  0  0
 22 41  1  0  0  0  0
 27 42  1  0  0  0  0
 27 43  1  0  0  0  0
 27 44  1  0  0  0  0
 28 45  1  0  0  0  0
M  END
> <ID>
49

> <IC50[uM]>
1.528

$$$$
