64
  -OEChem-05192314313D
 Structure written by MMmdl.
 45 49  0     0  0  0  0  0  0999 V2000
   92.5649   47.3357  266.4780 C   0  0  0  0  0  0  0  0  0  0  0  0
   91.6096   48.3267  266.6685 C   0  0  0  0  0  0  0  0  0  0  0  0
   91.9706   49.5255  267.2755 C   0  0  0  0  0  0  0  0  0  0  0  0
   93.2850   49.7849  267.6888 C   0  0  0  0  0  0  0  0  0  0  0  0
   93.8962   47.5315  266.9149 C   0  0  0  0  0  0  0  0  0  0  0  0
   94.2730   48.7725  267.5157 C   0  0  0  0  0  0  0  0  0  0  0  0
   95.5623   48.9611  267.9440 N   0  0  0  0  0  0  0  0  0  0  0  0
   96.4530   47.9549  267.7607 C   0  0  0  0  0  0  0  0  0  0  0  0
   96.0604   46.7398  267.2043 C   0  0  0  0  0  0  0  0  0  0  0  0
   94.8009   46.5220  266.7799 N   0  0  0  0  0  0  0  0  0  0  0  0
   93.5830   51.0799  268.3394 C   0  0  0  0  0  0  0  0  0  0  0  0
   94.5627   51.9319  267.8062 C   0  0  0  0  0  0  0  0  0  0  0  0
   94.8597   53.1715  268.3735 C   0  0  0  0  0  0  0  0  0  0  0  0
   92.8765   51.4421  269.4881 C   0  0  0  0  0  0  0  0  0  0  0  0
   93.1675   52.6783  270.0741 C   0  0  0  0  0  0  0  0  0  0  0  0
   94.1347   53.5526  269.5062 C   0  0  0  0  0  0  0  0  0  0  0  0
   94.3115   54.7222  270.1528 N   0  0  0  0  0  0  0  0  0  0  0  0
   93.5858   54.7561  271.2381 C   0  0  0  0  0  0  0  0  0  0  0  0
   92.5123   53.4088  271.5255 S   0  0  0  0  0  0  0  0  0  0  0  0
   90.2698   48.1142  266.3113 N   0  0  0  0  0  0  0  0  0  0  0  0
   89.7130   47.3380  265.2849 C   0  0  0  0  0  0  0  0  0  0  0  0
   88.4197   46.7984  265.3938 C   0  0  0  0  0  0  0  0  0  0  0  0
   87.8833   46.0898  264.3143 C   0  0  0  0  0  0  0  0  0  0  0  0
   88.6520   45.9437  263.1599 C   0  0  0  0  0  0  0  0  0  0  0  0
   89.9057   46.4470  263.0359 N   0  0  0  0  0  0  0  0  0  0  0  0
   90.4150   47.1276  264.0943 C   0  0  0  0  0  0  0  0  0  0  0  0
   87.4814   46.8888  266.9221 S   0  0  0  0  0  0  0  0  0  0  0  0
   86.1277   46.3901  266.6642 O   0  0  0  0  0  0  0  0  0  0  0  0
   87.6791   48.2295  267.4834 O   0  0  0  0  0  0  0  0  0  0  0  0
   88.3741   45.6337  268.0075 C   0  0  0  0  0  0  0  0  0  0  0  0
   92.2895   46.4106  265.9936 H   0  0  0  0  0  0  0  0  0  0  0  0
   91.2143   50.2802  267.4333 H   0  0  0  0  0  0  0  0  0  0  0  0
   97.4834   48.0981  268.0509 H   0  0  0  0  0  0  0  0  0  0  0  0
   96.7886   45.9478  267.1103 H   0  0  0  0  0  0  0  0  0  0  0  0
   95.1051   51.6172  266.9269 H   0  0  0  0  0  0  0  0  0  0  0  0
   95.6209   53.8123  267.9534 H   0  0  0  0  0  0  0  0  0  0  0  0
   92.1285   50.7879  269.9110 H   0  0  0  0  0  0  0  0  0  0  0  0
   93.6470   55.5835  271.9296 H   0  0  0  0  0  0  0  0  0  0  0  0
   89.6033   48.5945  266.8815 H   0  0  0  0  0  0  0  0  0  0  0  0
   86.8926   45.6638  264.3734 H   0  0  0  0  0  0  0  0  0  0  0  0
   88.2292   45.4044  262.3252 H   0  0  0  0  0  0  0  0  0  0  0  0
   91.4149   47.5275  264.0123 H   0  0  0  0  0  0  0  0  0  0  0  0
   87.8889   45.5903  268.9937 H   0  0  0  0  0  0  0  0  0  0  0  0
   88.3301   44.6421  267.5334 H   0  0  0  0  0  0  0  0  0  0  0  0
   89.4248   45.9358  268.1289 H   0  0  0  0  0  0  0  0  0  0  0  0
  1  2  2  0  0  0  0
  1  5  1  0  0  0  0
  2  3  1  0  0  0  0
  2 20  1  0  0  0  0
  3  4  2  0  0  0  0
  4  6  1  0  0  0  0
  4 11  1  0  0  0  0
  5  6  2  0  0  0  0
  5 10  1  0  0  0  0
  6  7  1  0  0  0  0
  7  8  2  0  0  0  0
  8  9  1  0  0  0  0
  9 10  2  0  0  0  0
 11 12  2  0  0  0  0
 11 14  1  0  0  0  0
 12 13  1  0  0  0  0
 13 16  2  0  0  0  0
 14 15  2  0  0  0  0
 15 16  1  0  0  0  0
 15 19  1  0  0  0  0
 16 17  1  0  0  0  0
 17 18  2  0  0  0  0
 18 19  1  0  0  0  0
 20 21  1  0  0  0  0
 21 22  2  0  0  0  0
 21 26  1  0  0  0  0
 22 23  1  0  0  0  0
 22 27  1  0  0  0  0
 23 24  2  0  0  0  0
 24 25  1  0  0  0  0
 25 26  2  0  0  0  0
 27 28  2  0  0  0  0
 27 29  2  0  0  0  0
 27 30  1  0  0  0  0
  1 31  1  0  0  0  0
  3 32  1  0  0  0  0
  8 33  1  0  0  0  0
  9 34  1  0  0  0  0
 12 35  1  0  0  0  0
 13 36  1  0  0  0  0
 14 37  1  0  0  0  0
 18 38  1  0  0  0  0
 20 39  1  0  0  0  0
 23 40  1  0  0  0  0
 24 41  1  0  0  0  0
 26 42  1  0  0  0  0
 30 43  1  0  0  0  0
 30 44  1  0  0  0  0
 30 45  1  0  0  0  0
M  END
> <ID>
64

> <IC50[uM]>
0.124

$$$$
64
  -OEChem-05192314313D
 Structure written by MMmdl.
 45 49  0     0  0  0  0  0  0999 V2000
   92.5649   47.3357  266.4780 C   0  0  0  0  0  0  0  0  0  0  0  0
   91.6096   48.3267  266.6685 C   0  0  0  0  0  0  0  0  0  0  0  0
   91.9706   49.5255  267.2755 C   0  0  0  0  0  0  0  0  0  0  0  0
   93.2850   49.7849  267.6888 C   0  0  0  0  0  0  0  0  0  0  0  0
   93.8962   47.5315  266.9149 C   0  0  0  0  0  0  0  0  0  0  0  0
   94.2730   48.7725  267.5157 C   0  0  0  0  0  0  0  0  0  0  0  0
   95.5623   48.9611  267.9440 N   0  0  0  0  0  0  0  0  0  0  0  0
   96.4530   47.9549  267.7607 C   0  0  0  0  0  0  0  0  0  0  0  0
   96.0604   46.7398  267.2043 C   0  0  0  0  0  0  0  0  0  0  0  0
   94.8009   46.5220  266.7799 N   0  0  0  0  0  0  0  0  0  0  0  0
   93.5830   51.0799  268.3394 C   0  0  0  0  0  0  0  0  0  0  0  0
   94.5627   51.9319  267.8062 C   0  0  0  0  0  0  0  0  0  0  0  0
   94.8597   53.1715  268.3735 C   0  0  0  0  0  0  0  0  0  0  0  0
   92.8765   51.4421  269.4881 C   0  0  0  0  0  0  0  0  0  0  0  0
   93.1675   52.6783  270.0741 C   0  0  0  0  0  0  0  0  0  0  0  0
   94.1347   53.5526  269.5062 C   0  0  0  0  0  0  0  0  0  0  0  0
   94.3115   54.7222  270.1528 N   0  0  0  0  0  0  0  0  0  0  0  0
   93.5858   54.7561  271.2381 C   0  0  0  0  0  0  0  0  0  0  0  0
   92.5123   53.4088  271.5255 S   0  0  0  0  0  0  0  0  0  0  0  0
   90.2698   48.1142  266.3113 N   0  0  0  0  0  0  0  0  0  0  0  0
   89.7130   47.3380  265.2849 C   0  0  0  0  0  0  0  0  0  0  0  0
   88.4197   46.7984  265.3938 C   0  0  0  0  0  0  0  0  0  0  0  0
   87.8833   46.0898  264.3143 C   0  0  0  0  0  0  0  0  0  0  0  0
   88.6520   45.9437  263.1599 C   0  0  0  0  0  0  0  0  0  0  0  0
   89.9057   46.4470  263.0359 N   0  0  0  0  0  0  0  0  0  0  0  0
   90.4150   47.1276  264.0943 C   0  0  0  0  0  0  0  0  0  0  0  0
   87.4814   46.8888  266.9221 S   0  0  0  0  0  0  0  0  0  0  0  0
   86.1277   46.3901  266.6642 O   0  0  0  0  0  0  0  0  0  0  0  0
   87.6791   48.2295  267.4834 O   0  0  0  0  0  0  0  0  0  0  0  0
   88.3741   45.6337  268.0075 C   0  0  0  0  0  0  0  0  0  0  0  0
   92.2895   46.4106  265.9936 H   0  0  0  0  0  0  0  0  0  0  0  0
   91.2143   50.2802  267.4333 H   0  0  0  0  0  0  0  0  0  0  0  0
   97.4834   48.0981  268.0509 H   0  0  0  0  0  0  0  0  0  0  0  0
   96.7886   45.9478  267.1103 H   0  0  0  0  0  0  0  0  0  0  0  0
   94.5376   45.6452  266.3776 H   0  0  0  0  0  0  0  0  0  0  0  0
   95.1051   51.6172  266.9269 H   0  0  0  0  0  0  0  0  0  0  0  0
   95.6209   53.8123  267.9534 H   0  0  0  0  0  0  0  0  0  0  0  0
   92.1285   50.7879  269.9110 H   0  0  0  0  0  0  0  0  0  0  0  0
   93.6470   55.5835  271.9296 H   0  0  0  0  0  0  0  0  0  0  0  0
   86.8926   45.6638  264.3734 H   0  0  0  0  0  0  0  0  0  0  0  0
   88.2292   45.4044  262.3252 H   0  0  0  0  0  0  0  0  0  0  0  0
   91.4149   47.5275  264.0123 H   0  0  0  0  0  0  0  0  0  0  0  0
   87.8889   45.5903  268.9937 H   0  0  0  0  0  0  0  0  0  0  0  0
   88.3301   44.6421  267.5334 H   0  0  0  0  0  0  0  0  0  0  0  0
   89.4248   45.9358  268.1289 H   0  0  0  0  0  0  0  0  0  0  0  0
  1  2  1  0  0  0  0
  1  5  2  0  0  0  0
  2  3  1  0  0  0  0
  2 20  2  3  0  0  0
  3  4  2  0  0  0  0
  4  6  1  0  0  0  0
  4 11  1  0  0  0  0
  5  6  1  0  0  0  0
  5 10  1  0  0  0  0
  6  7  2  0  0  0  0
  7  8  1  0  0  0  0
  8  9  2  0  0  0  0
  9 10  1  0  0  0  0
 11 12  2  0  0  0  0
 11 14  1  0  0  0  0
 12 13  1  0  0  0  0
 13 16  2  0  0  0  0
 14 15  2  0  0  0  0
 15 16  1  0  0  0  0
 15 19  1  0  0  0  0
 16 17  1  0  0  0  0
 17 18  2  0  0  0  0
 18 19  1  0  0  0  0
 20 21  1  0  0  0  0
 21 22  2  0  0  0  0
 21 26  1  0  0  0  0
 22 23  1  0  0  0  0
 22 27  1  0  0  0  0
 23 24  2  0  0  0  0
 24 25  1  0  0  0  0
 25 26  2  0  0  0  0
 27 28  2  0  0  0  0
 27 29  2  0  0  0  0
 27 30  1  0  0  0  0
  1 31  1  0  0  0  0
  3 32  1  0  0  0  0
  8 33  1  0  0  0  0
  9 34  1  0  0  0  0
 10 35  1  0  0  0  0
 12 36  1  0  0  0  0
 13 37  1  0  0  0  0
 14 38  1  0  0  0  0
 18 39  1  0  0  0  0
 23 40  1  0  0  0  0
 24 41  1  0  0  0  0
 26 42  1  0  0  0  0
 30 43  1  0  0  0  0
 30 44  1  0  0  0  0
 30 45  1  0  0  0  0
M  END
> <ID>
64

> <IC50[uM]>
0.124

$$$$
64
  -OEChem-05192314313D
 Structure written by MMmdl.
 45 49  0     0  0  0  0  0  0999 V2000
   92.5649   47.3357  266.4780 C   0  0  0  0  0  0  0  0  0  0  0  0
   91.6096   48.3267  266.6685 C   0  0  0  0  0  0  0  0  0  0  0  0
   91.9706   49.5255  267.2755 C   0  0  0  0  0  0  0  0  0  0  0  0
   93.2850   49.7849  267.6888 C   0  0  0  0  0  0  0  0  0  0  0  0
   93.8962   47.5315  266.9149 C   0  0  0  0  0  0  0  0  0  0  0  0
   94.2730   48.7725  267.5157 C   0  0  0  0  0  0  0  0  0  0  0  0
   95.5623   48.9611  267.9440 N   0  0  0  0  0  0  0  0  0  0  0  0
   96.4530   47.9549  267.7607 C   0  0  0  0  0  0  0  0  0  0  0  0
   96.0604   46.7398  267.2043 C   0  0  0  0  0  0  0  0  0  0  0  0
   94.8009   46.5220  266.7799 N   0  0  0  0  0  0  0  0  0  0  0  0
   93.5830   51.0799  268.3394 C   0  0  0  0  0  0  0  0  0  0  0  0
   94.5627   51.9319  267.8062 C   0  0  0  0  0  0  0  0  0  0  0  0
   94.8597   53.1715  268.3735 C   0  0  0  0  0  0  0  0  0  0  0  0
   92.8765   51.4421  269.4881 C   0  0  0  0  0  0  0  0  0  0  0  0
   93.1675   52.6783  270.0741 C   0  0  0  0  0  0  0  0  0  0  0  0
   94.1347   53.5526  269.5062 C   0  0  0  0  0  0  0  0  0  0  0  0
   94.3115   54.7222  270.1528 N   0  0  0  0  0  0  0  0  0  0  0  0
   93.5858   54.7561  271.2381 C   0  0  0  0  0  0  0  0  0  0  0  0
   92.5123   53.4088  271.5255 S   0  0  0  0  0  0  0  0  0  0  0  0
   90.2698   48.1142  266.3113 N   0  0  0  0  0  0  0  0  0  0  0  0
   89.7130   47.3380  265.2849 C   0  0  0  0  0  0  0  0  0  0  0  0
   88.4197   46.7984  265.3938 C   0  0  0  0  0  0  0  0  0  0  0  0
   87.8833   46.0898  264.3143 C   0  0  0  0  0  0  0  0  0  0  0  0
   88.6520   45.9437  263.1599 C   0  0  0  0  0  0  0  0  0  0  0  0
   89.9057   46.4470  263.0359 N   0  0  0  0  0  0  0  0  0  0  0  0
   90.4150   47.1276  264.0943 C   0  0  0  0  0  0  0  0  0  0  0  0
   87.4814   46.8888  266.9221 S   0  0  0  0  0  0  0  0  0  0  0  0
   86.1277   46.3901  266.6642 O   0  0  0  0  0  0  0  0  0  0  0  0
   87.6791   48.2295  267.4834 O   0  0  0  0  0  0  0  0  0  0  0  0
   88.3741   45.6337  268.0075 C   0  0  0  0  0  0  0  0  0  0  0  0
   92.1934   46.4363  266.9909 H   0  0  0  0  0  0  0  0  0  0  0  0
   92.6125   47.1470  265.3954 H   0  0  0  0  0  0  0  0  0  0  0  0
   91.2143   50.2802  267.4333 H   0  0  0  0  0  0  0  0  0  0  0  0
   97.4834   48.0981  268.0509 H   0  0  0  0  0  0  0  0  0  0  0  0
   96.7886   45.9478  267.1103 H   0  0  0  0  0  0  0  0  0  0  0  0
   95.1051   51.6172  266.9269 H   0  0  0  0  0  0  0  0  0  0  0  0
   95.6209   53.8123  267.9534 H   0  0  0  0  0  0  0  0  0  0  0  0
   92.1285   50.7879  269.9110 H   0  0  0  0  0  0  0  0  0  0  0  0
   93.6470   55.5835  271.9296 H   0  0  0  0  0  0  0  0  0  0  0  0
   86.8926   45.6638  264.3734 H   0  0  0  0  0  0  0  0  0  0  0  0
   88.2292   45.4044  262.3252 H   0  0  0  0  0  0  0  0  0  0  0  0
   91.4149   47.5275  264.0123 H   0  0  0  0  0  0  0  0  0  0  0  0
   87.8889   45.5903  268.9937 H   0  0  0  0  0  0  0  0  0  0  0  0
   88.3301   44.6421  267.5334 H   0  0  0  0  0  0  0  0  0  0  0  0
   89.4248   45.9358  268.1289 H   0  0  0  0  0  0  0  0  0  0  0  0
  1  2  1  0  0  0  0
  1  5  1  0  0  0  0
  2  3  1  0  0  0  0
  2 20  2  3  0  0  0
  3  4  2  0  0  0  0
  4  6  1  0  0  0  0
  4 11  1  0  0  0  0
  5  6  2  0  0  0  0
  5 10  1  0  0  0  0
  6  7  1  0  0  0  0
  7  8  2  0  0  0  0
  8  9  1  0  0  0  0
  9 10  2  0  0  0  0
 11 12  2  0  0  0  0
 11 14  1  0  0  0  0
 12 13  1  0  0  0  0
 13 16  2  0  0  0  0
 14 15  2  0  0  0  0
 15 16  1  0  0  0  0
 15 19  1  0  0  0  0
 16 17  1  0  0  0  0
 17 18  2  0  0  0  0
 18 19  1  0  0  0  0
 20 21  1  0  0  0  0
 21 22  2  0  0  0  0
 21 26  1  0  0  0  0
 22 23  1  0  0  0  0
 22 27  1  0  0  0  0
 23 24  2  0  0  0  0
 24 25  1  0  0  0  0
 25 26  2  0  0  0  0
 27 28  2  0  0  0  0
 27 29  2  0  0  0  0
 27 30  1  0  0  0  0
  1 31  1  0  0  0  0
  1 32  1  0  0  0  0
  3 33  1  0  0  0  0
  8 34  1  0  0  0  0
  9 35  1  0  0  0  0
 12 36  1  0  0  0  0
 13 37  1  0  0  0  0
 14 38  1  0  0  0  0
 18 39  1  0  0  0  0
 23 40  1  0  0  0  0
 24 41  1  0  0  0  0
 26 42  1  0  0  0  0
 30 43  1  0  0  0  0
 30 44  1  0  0  0  0
 30 45  1  0  0  0  0
M  END
> <ID>
64

> <IC50[uM]>
0.124

$$$$
64
  -OEChem-05192314313D
 Structure written by MMmdl.
 45 49  0     0  0  0  0  0  0999 V2000
   92.5649   47.3357  266.4780 C   0  0  0  0  0  0  0  0  0  0  0  0
   91.6096   48.3267  266.6685 C   0  0  0  0  0  0  0  0  0  0  0  0
   91.9706   49.5255  267.2755 C   0  0  0  0  0  0  0  0  0  0  0  0
   93.2850   49.7849  267.6888 C   0  0  0  0  0  0  0  0  0  0  0  0
   93.8962   47.5315  266.9149 C   0  0  0  0  0  0  0  0  0  0  0  0
   94.2730   48.7725  267.5157 C   0  0  0  0  0  0  0  0  0  0  0  0
   95.5623   48.9611  267.9440 N   0  0  0  0  0  0  0  0  0  0  0  0
   96.4530   47.9549  267.7607 C   0  0  0  0  0  0  0  0  0  0  0  0
   96.0604   46.7398  267.2043 C   0  0  0  0  0  0  0  0  0  0  0  0
   94.8009   46.5220  266.7799 N   0  0  0  0  0  0  0  0  0  0  0  0
   93.5830   51.0799  268.3394 C   0  0  0  0  0  0  0  0  0  0  0  0
   94.5627   51.9319  267.8062 C   0  0  0  0  0  0  0  0  0  0  0  0
   94.8597   53.1715  268.3735 C   0  0  0  0  0  0  0  0  0  0  0  0
   92.8765   51.4421  269.4881 C   0  0  0  0  0  0  0  0  0  0  0  0
   93.1675   52.6783  270.0741 C   0  0  0  0  0  0  0  0  0  0  0  0
   94.1347   53.5526  269.5062 C   0  0  0  0  0  0  0  0  0  0  0  0
   94.3115   54.7222  270.1528 N   0  0  0  0  0  0  0  0  0  0  0  0
   93.5858   54.7561  271.2381 C   0  0  0  0  0  0  0  0  0  0  0  0
   92.5123   53.4088  271.5255 S   0  0  0  0  0  0  0  0  0  0  0  0
   90.2698   48.1142  266.3113 N   0  0  0  0  0  0  0  0  0  0  0  0
   89.7130   47.3380  265.2849 C   0  0  0  0  0  0  0  0  0  0  0  0
   88.4197   46.7984  265.3938 C   0  0  0  0  0  0  0  0  0  0  0  0
   87.8833   46.0898  264.3143 C   0  0  0  0  0  0  0  0  0  0  0  0
   88.6520   45.9437  263.1599 C   0  0  0  0  0  0  0  0  0  0  0  0
   89.9057   46.4470  263.0359 N   0  0  0  0  0  0  0  0  0  0  0  0
   90.4150   47.1276  264.0943 C   0  0  0  0  0  0  0  0  0  0  0  0
   87.4814   46.8888  266.9221 S   0  0  0  0  0  0  0  0  0  0  0  0
   86.1277   46.3901  266.6642 O   0  0  0  0  0  0  0  0  0  0  0  0
   87.6791   48.2295  267.4834 O   0  0  0  0  0  0  0  0  0  0  0  0
   88.3741   45.6337  268.0075 C   0  0  0  0  0  0  0  0  0  0  0  0
   92.2895   46.4106  265.9936 H   0  0  0  0  0  0  0  0  0  0  0  0
   91.7095   50.3218  266.5629 H   0  0  0  0  0  0  0  0  0  0  0  0
   91.3422   49.6168  268.1737 H   0  0  0  0  0  0  0  0  0  0  0  0
   97.4834   48.0981  268.0509 H   0  0  0  0  0  0  0  0  0  0  0  0
   96.7886   45.9478  267.1103 H   0  0  0  0  0  0  0  0  0  0  0  0
   95.1051   51.6172  266.9269 H   0  0  0  0  0  0  0  0  0  0  0  0
   95.6209   53.8123  267.9534 H   0  0  0  0  0  0  0  0  0  0  0  0
   92.1285   50.7879  269.9110 H   0  0  0  0  0  0  0  0  0  0  0  0
   93.6470   55.5835  271.9296 H   0  0  0  0  0  0  0  0  0  0  0  0
   86.8926   45.6638  264.3734 H   0  0  0  0  0  0  0  0  0  0  0  0
   88.2292   45.4044  262.3252 H   0  0  0  0  0  0  0  0  0  0  0  0
   91.4149   47.5275  264.0123 H   0  0  0  0  0  0  0  0  0  0  0  0
   87.8889   45.5903  268.9937 H   0  0  0  0  0  0  0  0  0  0  0  0
   88.3301   44.6421  267.5334 H   0  0  0  0  0  0  0  0  0  0  0  0
   89.4248   45.9358  268.1289 H   0  0  0  0  0  0  0  0  0  0  0  0
  1  2  1  0  0  0  0
  1  5  2  0  0  0  0
  2  3  1  0  0  0  0
  2 20  2  3  0  0  0
  3  4  1  0  0  0  0
  4  6  2  0  0  0  0
  4 11  1  0  0  0  0
  5  6  1  0  0  0  0
  5 10  1  0  0  0  0
  6  7  1  0  0  0  0
  7  8  2  0  0  0  0
  8  9  1  0  0  0  0
  9 10  2  0  0  0  0
 11 12  2  0  0  0  0
 11 14  1  0  0  0  0
 12 13  1  0  0  0  0
 13 16  2  0  0  0  0
 14 15  2  0  0  0  0
 15 16  1  0  0  0  0
 15 19  1  0  0  0  0
 16 17  1  0  0  0  0
 17 18  2  0  0  0  0
 18 19  1  0  0  0  0
 20 21  1  0  0  0  0
 21 22  2  0  0  0  0
 21 26  1  0  0  0  0
 22 23  1  0  0  0  0
 22 27  1  0  0  0  0
 23 24  2  0  0  0  0
 24 25  1  0  0  0  0
 25 26  2  0  0  0  0
 27 28  2  0  0  0  0
 27 29  2  0  0  0  0
 27 30  1  0  0  0  0
  1 31  1  0  0  0  0
  3 32  1  0  0  0  0
  3 33  1  0  0  0  0
  8 34  1  0  0  0  0
  9 35  1  0  0  0  0
 12 36  1  0  0  0  0
 13 37  1  0  0  0  0
 14 38  1  0  0  0  0
 18 39  1  0  0  0  0
 23 40  1  0  0  0  0
 24 41  1  0  0  0  0
 26 42  1  0  0  0  0
 30 43  1  0  0  0  0
 30 44  1  0  0  0  0
 30 45  1  0  0  0  0
M  END
> <ID>
64

> <IC50[uM]>
0.124

$$$$
64
  -OEChem-05192314313D
 Structure written by MMmdl.
 45 49  0     1  0  0  0  0  0999 V2000
   92.5649   47.3357  266.4780 C   0  0  0  0  0  0  0  0  0  0  0  0
   91.6096   48.3267  266.6685 C   0  0  0  0  0  0  0  0  0  0  0  0
   91.9706   49.5255  267.2755 C   0  0  0  0  0  0  0  0  0  0  0  0
   93.2850   49.7849  267.6888 C   0  0  0  0  0  0  0  0  0  0  0  0
   93.8962   47.5315  266.9149 C   0  0  0  0  0  0  0  0  0  0  0  0
   94.2730   48.7725  267.5157 C   0  0  0  0  0  0  0  0  0  0  0  0
   95.5623   48.9611  267.9440 N   0  0  0  0  0  0  0  0  0  0  0  0
   96.4530   47.9549  267.7607 C   0  0  0  0  0  0  0  0  0  0  0  0
   96.0604   46.7398  267.2043 C   0  0  0  0  0  0  0  0  0  0  0  0
   94.8009   46.5220  266.7799 N   0  0  0  0  0  0  0  0  0  0  0  0
   93.5830   51.0799  268.3394 C   0  0  0  0  0  0  0  0  0  0  0  0
   94.5627   51.9319  267.8062 C   0  0  0  0  0  0  0  0  0  0  0  0
   94.8597   53.1715  268.3735 C   0  0  0  0  0  0  0  0  0  0  0  0
   92.8765   51.4421  269.4881 C   0  0  0  0  0  0  0  0  0  0  0  0
   93.1675   52.6783  270.0741 C   0  0  0  0  0  0  0  0  0  0  0  0
   94.1347   53.5526  269.5062 C   0  0  0  0  0  0  0  0  0  0  0  0
   94.3115   54.7222  270.1528 N   0  0  0  0  0  0  0  0  0  0  0  0
   93.5858   54.7561  271.2381 C   0  0  0  0  0  0  0  0  0  0  0  0
   92.5123   53.4088  271.5255 S   0  0  0  0  0  0  0  0  0  0  0  0
   90.2698   48.1142  266.3113 N   0  0  0  0  0  0  0  0  0  0  0  0
   89.7130   47.3380  265.2849 C   0  0  0  0  0  0  0  0  0  0  0  0
   88.4197   46.7984  265.3938 C   0  0  3  0  0  0  0  0  0  0  0  0
   87.8833   46.0898  264.3143 C   0  0  0  0  0  0  0  0  0  0  0  0
   88.6520   45.9437  263.1599 C   0  0  0  0  0  0  0  0  0  0  0  0
   89.9057   46.4470  263.0359 N   0  0  0  0  0  0  0  0  0  0  0  0
   90.4150   47.1276  264.0943 C   0  0  0  0  0  0  0  0  0  0  0  0
   87.4814   46.8888  266.9221 S   0  0  0  0  0  0  0  0  0  0  0  0
   86.1277   46.3901  266.6642 O   0  0  0  0  0  0  0  0  0  0  0  0
   87.6791   48.2295  267.4834 O   0  0  0  0  0  0  0  0  0  0  0  0
   88.3741   45.6337  268.0075 C   0  0  0  0  0  0  0  0  0  0  0  0
   92.2895   46.4106  265.9936 H   0  0  0  0  0  0  0  0  0  0  0  0
   91.2143   50.2802  267.4333 H   0  0  0  0  0  0  0  0  0  0  0  0
   97.4834   48.0981  268.0509 H   0  0  0  0  0  0  0  0  0  0  0  0
   96.7886   45.9478  267.1103 H   0  0  0  0  0  0  0  0  0  0  0  0
   95.1051   51.6172  266.9269 H   0  0  0  0  0  0  0  0  0  0  0  0
   95.6209   53.8123  267.9534 H   0  0  0  0  0  0  0  0  0  0  0  0
   92.1285   50.7879  269.9110 H   0  0  0  0  0  0  0  0  0  0  0  0
   93.6470   55.5835  271.9296 H   0  0  0  0  0  0  0  0  0  0  0  0
   87.9691   47.7363  265.0370 H   0  0  0  0  0  0  0  0  0  0  0  0
   86.8926   45.6638  264.3734 H   0  0  0  0  0  0  0  0  0  0  0  0
   88.2292   45.4044  262.3252 H   0  0  0  0  0  0  0  0  0  0  0  0
   91.4149   47.5275  264.0123 H   0  0  0  0  0  0  0  0  0  0  0  0
   87.8889   45.5903  268.9937 H   0  0  0  0  0  0  0  0  0  0  0  0
   88.3301   44.6421  267.5334 H   0  0  0  0  0  0  0  0  0  0  0  0
   89.4248   45.9358  268.1289 H   0  0  0  0  0  0  0  0  0  0  0  0
  1  2  2  0  0  0  0
  1  5  1  0  0  0  0
  2  3  1  0  0  0  0
  2 20  1  0  0  0  0
  3  4  2  0  0  0  0
  4  6  1  0  0  0  0
  4 11  1  0  0  0  0
  5  6  2  0  0  0  0
  5 10  1  0  0  0  0
  6  7  1  0  0  0  0
  7  8  2  0  0  0  0
  8  9  1  0  0  0  0
  9 10  2  0  0  0  0
 11 12  2  0  0  0  0
 11 14  1  0  0  0  0
 12 13  1  0  0  0  0
 13 16  2  0  0  0  0
 14 15  2  0  0  0  0
 15 16  1  0  0  0  0
 15 19  1  0  0  0  0
 16 17  1  0  0  0  0
 17 18  2  0  0  0  0
 18 19  1  0  0  0  0
 20 21  2  0  0  0  0
 21 22  1  0  0  0  0
 21 26  1  0  0  0  0
 22 23  1  0  0  0  0
 22 27  1  0  0  0  0
 23 24  2  0  0  0  0
 24 25  1  0  0  0  0
 25 26  2  0  0  0  0
 27 28  2  0  0  0  0
 27 29  2  0  0  0  0
 27 30  1  0  0  0  0
  1 31  1  0  0  0  0
  3 32  1  0  0  0  0
  8 33  1  0  0  0  0
  9 34  1  0  0  0  0
 12 35  1  0  0  0  0
 13 36  1  0  0  0  0
 14 37  1  0  0  0  0
 18 38  1  0  0  0  0
 22 39  1  0  0  0  0
 23 40  1  0  0  0  0
 24 41  1  0  0  0  0
 26 42  1  0  0  0  0
 30 43  1  0  0  0  0
 30 44  1  0  0  0  0
 30 45  1  0  0  0  0
M  END
> <ID>
64

> <IC50[uM]>
0.124

$$$$
64
  -OEChem-05192314313D
 Structure written by MMmdl.
 45 49  0     0  0  0  0  0  0999 V2000
   92.5649   47.3357  266.4780 C   0  0  0  0  0  0  0  0  0  0  0  0
   91.6096   48.3267  266.6685 C   0  0  0  0  0  0  0  0  0  0  0  0
   91.9706   49.5255  267.2755 C   0  0  0  0  0  0  0  0  0  0  0  0
   93.2850   49.7849  267.6888 C   0  0  0  0  0  0  0  0  0  0  0  0
   93.8962   47.5315  266.9149 C   0  0  0  0  0  0  0  0  0  0  0  0
   94.2730   48.7725  267.5157 C   0  0  0  0  0  0  0  0  0  0  0  0
   95.5623   48.9611  267.9440 N   0  0  0  0  0  0  0  0  0  0  0  0
   96.4530   47.9549  267.7607 C   0  0  0  0  0  0  0  0  0  0  0  0
   96.0604   46.7398  267.2043 C   0  0  0  0  0  0  0  0  0  0  0  0
   94.8009   46.5220  266.7799 N   0  0  0  0  0  0  0  0  0  0  0  0
   93.5830   51.0799  268.3394 C   0  0  0  0  0  0  0  0  0  0  0  0
   94.5627   51.9319  267.8062 C   0  0  0  0  0  0  0  0  0  0  0  0
   94.8597   53.1715  268.3735 C   0  0  0  0  0  0  0  0  0  0  0  0
   92.8765   51.4421  269.4881 C   0  0  0  0  0  0  0  0  0  0  0  0
   93.1675   52.6783  270.0741 C   0  0  0  0  0  0  0  0  0  0  0  0
   94.1347   53.5526  269.5062 C   0  0  0  0  0  0  0  0  0  0  0  0
   94.3115   54.7222  270.1528 N   0  0  0  0  0  0  0  0  0  0  0  0
   93.5858   54.7561  271.2381 C   0  0  0  0  0  0  0  0  0  0  0  0
   92.5123   53.4088  271.5255 S   0  0  0  0  0  0  0  0  0  0  0  0
   90.2698   48.1142  266.3113 N   0  0  0  0  0  0  0  0  0  0  0  0
   89.7130   47.3380  265.2849 C   0  0  0  0  0  0  0  0  0  0  0  0
   88.4197   46.7984  265.3938 C   0  0  0  0  0  0  0  0  0  0  0  0
   87.8833   46.0898  264.3143 C   0  0  0  0  0  0  0  0  0  0  0  0
   88.6520   45.9437  263.1599 C   0  0  0  0  0  0  0  0  0  0  0  0
   89.9057   46.4470  263.0359 N   0  0  0  0  0  0  0  0  0  0  0  0
   90.4150   47.1276  264.0943 C   0  0  0  0  0  0  0  0  0  0  0  0
   87.4814   46.8888  266.9221 S   0  0  0  0  0  0  0  0  0  0  0  0
   86.1277   46.3901  266.6642 O   0  0  0  0  0  0  0  0  0  0  0  0
   87.6791   48.2295  267.4834 O   0  0  0  0  0  0  0  0  0  0  0  0
   88.3741   45.6337  268.0075 C   0  0  0  0  0  0  0  0  0  0  0  0
   92.2895   46.4106  265.9936 H   0  0  0  0  0  0  0  0  0  0  0  0
   91.2143   50.2802  267.4333 H   0  0  0  0  0  0  0  0  0  0  0  0
   97.4834   48.0981  268.0509 H   0  0  0  0  0  0  0  0  0  0  0  0
   96.7886   45.9478  267.1103 H   0  0  0  0  0  0  0  0  0  0  0  0
   95.1051   51.6172  266.9269 H   0  0  0  0  0  0  0  0  0  0  0  0
   95.6209   53.8123  267.9534 H   0  0  0  0  0  0  0  0  0  0  0  0
   92.1285   50.7879  269.9110 H   0  0  0  0  0  0  0  0  0  0  0  0
   93.6470   55.5835  271.9296 H   0  0  0  0  0  0  0  0  0  0  0  0
   86.8926   45.6638  264.3734 H   0  0  0  0  0  0  0  0  0  0  0  0
   88.7429   44.8604  262.9921 H   0  0  0  0  0  0  0  0  0  0  0  0
   88.0639   46.3927  262.3460 H   0  0  0  0  0  0  0  0  0  0  0  0
   91.4149   47.5275  264.0123 H   0  0  0  0  0  0  0  0  0  0  0  0
   87.8889   45.5903  268.9937 H   0  0  0  0  0  0  0  0  0  0  0  0
   88.3301   44.6421  267.5334 H   0  0  0  0  0  0  0  0  0  0  0  0
   89.4248   45.9358  268.1289 H   0  0  0  0  0  0  0  0  0  0  0  0
  1  2  2  0  0  0  0
  1  5  1  0  0  0  0
  2  3  1  0  0  0  0
  2 20  1  0  0  0  0
  3  4  2  0  0  0  0
  4  6  1  0  0  0  0
  4 11  1  0  0  0  0
  5  6  2  0  0  0  0
  5 10  1  0  0  0  0
  6  7  1  0  0  0  0
  7  8  2  0  0  0  0
  8  9  1  0  0  0  0
  9 10  2  0  0  0  0
 11 12  2  0  0  0  0
 11 14  1  0  0  0  0
 12 13  1  0  0  0  0
 13 16  2  0  0  0  0
 14 15  2  0  0  0  0
 15 16  1  0  0  0  0
 15 19  1  0  0  0  0
 16 17  1  0  0  0  0
 17 18  2  0  0  0  0
 18 19  1  0  0  0  0
 20 21  2  0  0  0  0
 21 22  1  0  0  0  0
 21 26  1  0  0  0  0
 22 23  2  0  0  0  0
 22 27  1  0  0  0  0
 23 24  1  0  0  0  0
 24 25  1  0  0  0  0
 25 26  2  0  0  0  0
 27 28  2  0  0  0  0
 27 29  2  0  0  0  0
 27 30  1  0  0  0  0
  1 31  1  0  0  0  0
  3 32  1  0  0  0  0
  8 33  1  0  0  0  0
  9 34  1  0  0  0  0
 12 35  1  0  0  0  0
 13 36  1  0  0  0  0
 14 37  1  0  0  0  0
 18 38  1  0  0  0  0
 23 39  1  0  0  0  0
 24 40  1  0  0  0  0
 24 41  1  0  0  0  0
 26 42  1  0  0  0  0
 30 43  1  0  0  0  0
 30 44  1  0  0  0  0
 30 45  1  0  0  0  0
M  END
> <ID>
64

> <IC50[uM]>
0.124

$$$$
64
  -OEChem-05192314313D
 Structure written by MMmdl.
 45 49  0     0  0  0  0  0  0999 V2000
   92.5649   47.3357  266.4780 C   0  0  0  0  0  0  0  0  0  0  0  0
   91.6096   48.3267  266.6685 C   0  0  0  0  0  0  0  0  0  0  0  0
   91.9706   49.5255  267.2755 C   0  0  0  0  0  0  0  0  0  0  0  0
   93.2850   49.7849  267.6888 C   0  0  0  0  0  0  0  0  0  0  0  0
   93.8962   47.5315  266.9149 C   0  0  0  0  0  0  0  0  0  0  0  0
   94.2730   48.7725  267.5157 C   0  0  0  0  0  0  0  0  0  0  0  0
   95.5623   48.9611  267.9440 N   0  0  0  0  0  0  0  0  0  0  0  0
   96.4530   47.9549  267.7607 C   0  0  0  0  0  0  0  0  0  0  0  0
   96.0604   46.7398  267.2043 C   0  0  0  0  0  0  0  0  0  0  0  0
   94.8009   46.5220  266.7799 N   0  0  0  0  0  0  0  0  0  0  0  0
   93.5830   51.0799  268.3394 C   0  0  0  0  0  0  0  0  0  0  0  0
   94.5627   51.9319  267.8062 C   0  0  0  0  0  0  0  0  0  0  0  0
   94.8597   53.1715  268.3735 C   0  0  0  0  0  0  0  0  0  0  0  0
   92.8765   51.4421  269.4881 C   0  0  0  0  0  0  0  0  0  0  0  0
   93.1675   52.6783  270.0741 C   0  0  0  0  0  0  0  0  0  0  0  0
   94.1347   53.5526  269.5062 C   0  0  0  0  0  0  0  0  0  0  0  0
   94.3115   54.7222  270.1528 N   0  0  0  0  0  0  0  0  0  0  0  0
   93.5858   54.7561  271.2381 C   0  0  0  0  0  0  0  0  0  0  0  0
   92.5123   53.4088  271.5255 S   0  0  0  0  0  0  0  0  0  0  0  0
   90.2698   48.1142  266.3113 N   0  0  0  0  0  0  0  0  0  0  0  0
   89.7130   47.3380  265.2849 C   0  0  0  0  0  0  0  0  0  0  0  0
   88.4197   46.7984  265.3938 C   0  0  0  0  0  0  0  0  0  0  0  0
   87.8833   46.0898  264.3143 C   0  0  0  0  0  0  0  0  0  0  0  0
   88.6520   45.9437  263.1599 C   0  0  0  0  0  0  0  0  0  0  0  0
   89.9057   46.4470  263.0359 N   0  0  0  0  0  0  0  0  0  0  0  0
   90.4150   47.1276  264.0943 C   0  0  0  0  0  0  0  0  0  0  0  0
   87.4814   46.8888  266.9221 S   0  0  0  0  0  0  0  0  0  0  0  0
   86.1277   46.3901  266.6642 O   0  0  0  0  0  0  0  0  0  0  0  0
   87.6791   48.2295  267.4834 O   0  0  0  0  0  0  0  0  0  0  0  0
   88.3741   45.6337  268.0075 C   0  0  0  0  0  0  0  0  0  0  0  0
   92.2895   46.4106  265.9936 H   0  0  0  0  0  0  0  0  0  0  0  0
   91.2143   50.2802  267.4333 H   0  0  0  0  0  0  0  0  0  0  0  0
   97.4834   48.0981  268.0509 H   0  0  0  0  0  0  0  0  0  0  0  0
   96.7886   45.9478  267.1103 H   0  0  0  0  0  0  0  0  0  0  0  0
   95.1051   51.6172  266.9269 H   0  0  0  0  0  0  0  0  0  0  0  0
   95.6209   53.8123  267.9534 H   0  0  0  0  0  0  0  0  0  0  0  0
   92.1285   50.7879  269.9110 H   0  0  0  0  0  0  0  0  0  0  0  0
   93.6470   55.5835  271.9296 H   0  0  0  0  0  0  0  0  0  0  0  0
   86.8926   45.6638  264.3734 H   0  0  0  0  0  0  0  0  0  0  0  0
   88.2292   45.4044  262.3252 H   0  0  0  0  0  0  0  0  0  0  0  0
   90.6697   48.1280  263.7144 H   0  0  0  0  0  0  0  0  0  0  0  0
   91.3362   46.5975  264.3778 H   0  0  0  0  0  0  0  0  0  0  0  0
   87.8889   45.5903  268.9937 H   0  0  0  0  0  0  0  0  0  0  0  0
   88.3301   44.6421  267.5334 H   0  0  0  0  0  0  0  0  0  0  0  0
   89.4248   45.9358  268.1289 H   0  0  0  0  0  0  0  0  0  0  0  0
  1  2  2  0  0  0  0
  1  5  1  0  0  0  0
  2  3  1  0  0  0  0
  2 20  1  0  0  0  0
  3  4  2  0  0  0  0
  4  6  1  0  0  0  0
  4 11  1  0  0  0  0
  5  6  2  0  0  0  0
  5 10  1  0  0  0  0
  6  7  1  0  0  0  0
  7  8  2  0  0  0  0
  8  9  1  0  0  0  0
  9 10  2  0  0  0  0
 11 12  2  0  0  0  0
 11 14  1  0  0  0  0
 12 13  1  0  0  0  0
 13 16  2  0  0  0  0
 14 15  2  0  0  0  0
 15 16  1  0  0  0  0
 15 19  1  0  0  0  0
 16 17  1  0  0  0  0
 17 18  2  0  0  0  0
 18 19  1  0  0  0  0
 20 21  2  0  0  0  0
 21 22  1  0  0  0  0
 21 26  1  0  0  0  0
 22 23  2  0  0  0  0
 22 27  1  0  0  0  0
 23 24  1  0  0  0  0
 24 25  2  0  0  0  0
 25 26  1  0  0  0  0
 27 28  2  0  0  0  0
 27 29  2  0  0  0  0
 27 30  1  0  0  0  0
  1 31  1  0  0  0  0
  3 32  1  0  0  0  0
  8 33  1  0  0  0  0
  9 34  1  0  0  0  0
 12 35  1  0  0  0  0
 13 36  1  0  0  0  0
 14 37  1  0  0  0  0
 18 38  1  0  0  0  0
 23 39  1  0  0  0  0
 24 40  1  0  0  0  0
 26 41  1  0  0  0  0
 26 42  1  0  0  0  0
 30 43  1  0  0  0  0
 30 44  1  0  0  0  0
 30 45  1  0  0  0  0
M  END
> <ID>
64

> <IC50[uM]>
0.124

$$$$
64
  -OEChem-05192314313D
 Structure written by MMmdl.
 45 49  0     1  0  0  0  0  0999 V2000
   92.5649   47.3357  266.4780 C   0  0  0  0  0  0  0  0  0  0  0  0
   91.6096   48.3267  266.6685 C   0  0  0  0  0  0  0  0  0  0  0  0
   91.9706   49.5255  267.2755 C   0  0  0  0  0  0  0  0  0  0  0  0
   93.2850   49.7849  267.6888 C   0  0  0  0  0  0  0  0  0  0  0  0
   93.8962   47.5315  266.9149 C   0  0  0  0  0  0  0  0  0  0  0  0
   94.2730   48.7725  267.5157 C   0  0  3  0  0  0  0  0  0  0  0  0
   95.5623   48.9611  267.9440 N   0  0  0  0  0  0  0  0  0  0  0  0
   96.4530   47.9549  267.7607 C   0  0  0  0  0  0  0  0  0  0  0  0
   96.0604   46.7398  267.2043 C   0  0  0  0  0  0  0  0  0  0  0  0
   94.8009   46.5220  266.7799 N   0  0  0  0  0  0  0  0  0  0  0  0
   93.5830   51.0799  268.3394 C   0  0  0  0  0  0  0  0  0  0  0  0
   94.5627   51.9319  267.8062 C   0  0  0  0  0  0  0  0  0  0  0  0
   94.8597   53.1715  268.3735 C   0  0  0  0  0  0  0  0  0  0  0  0
   92.8765   51.4421  269.4881 C   0  0  0  0  0  0  0  0  0  0  0  0
   93.1675   52.6783  270.0741 C   0  0  0  0  0  0  0  0  0  0  0  0
   94.1347   53.5526  269.5062 C   0  0  0  0  0  0  0  0  0  0  0  0
   94.3115   54.7222  270.1528 N   0  0  0  0  0  0  0  0  0  0  0  0
   93.5858   54.7561  271.2381 C   0  0  0  0  0  0  0  0  0  0  0  0
   92.5123   53.4088  271.5255 S   0  0  0  0  0  0  0  0  0  0  0  0
   90.2698   48.1142  266.3113 N   0  0  0  0  0  0  0  0  0  0  0  0
   89.7130   47.3380  265.2849 C   0  0  0  0  0  0  0  0  0  0  0  0
   88.4197   46.7984  265.3938 C   0  0  0  0  0  0  0  0  0  0  0  0
   87.8833   46.0898  264.3143 C   0  0  0  0  0  0  0  0  0  0  0  0
   88.6520   45.9437  263.1599 C   0  0  0  0  0  0  0  0  0  0  0  0
   89.9057   46.4470  263.0359 N   0  0  0  0  0  0  0  0  0  0  0  0
   90.4150   47.1276  264.0943 C   0  0  0  0  0  0  0  0  0  0  0  0
   87.4814   46.8888  266.9221 S   0  0  0  0  0  0  0  0  0  0  0  0
   86.1277   46.3901  266.6642 O   0  0  0  0  0  0  0  0  0  0  0  0
   87.6791   48.2295  267.4834 O   0  0  0  0  0  0  0  0  0  0  0  0
   88.3741   45.6337  268.0075 C   0  0  0  0  0  0  0  0  0  0  0  0
   92.2895   46.4106  265.9936 H   0  0  0  0  0  0  0  0  0  0  0  0
   91.2143   50.2802  267.4333 H   0  0  0  0  0  0  0  0  0  0  0  0
   94.5318   49.1819  266.5280 H   0  0  0  0  0  0  0  0  0  0  0  0
   97.4834   48.0981  268.0509 H   0  0  0  0  0  0  0  0  0  0  0  0
   96.7886   45.9478  267.1103 H   0  0  0  0  0  0  0  0  0  0  0  0
   95.1051   51.6172  266.9269 H   0  0  0  0  0  0  0  0  0  0  0  0
   95.6209   53.8123  267.9534 H   0  0  0  0  0  0  0  0  0  0  0  0
   92.1285   50.7879  269.9110 H   0  0  0  0  0  0  0  0  0  0  0  0
   93.6470   55.5835  271.9296 H   0  0  0  0  0  0  0  0  0  0  0  0
   86.8926   45.6638  264.3734 H   0  0  0  0  0  0  0  0  0  0  0  0
   88.2292   45.4044  262.3252 H   0  0  0  0  0  0  0  0  0  0  0  0
   91.4149   47.5275  264.0123 H   0  0  0  0  0  0  0  0  0  0  0  0
   87.8889   45.5903  268.9937 H   0  0  0  0  0  0  0  0  0  0  0  0
   88.3301   44.6421  267.5334 H   0  0  0  0  0  0  0  0  0  0  0  0
   89.4248   45.9358  268.1289 H   0  0  0  0  0  0  0  0  0  0  0  0
  1  2  1  0  0  0  0
  1  5  2  0  0  0  0
  2  3  1  0  0  0  0
  2 20  2  3  0  0  0
  3  4  2  0  0  0  0
  4  6  1  0  0  0  0
  4 11  1  0  0  0  0
  5  6  1  0  0  0  0
  5 10  1  0  0  0  0
  6  7  1  0  0  0  0
  7  8  2  0  0  0  0
  8  9  1  0  0  0  0
  9 10  2  0  0  0  0
 11 12  2  0  0  0  0
 11 14  1  0  0  0  0
 12 13  1  0  0  0  0
 13 16  2  0  0  0  0
 14 15  2  0  0  0  0
 15 16  1  0  0  0  0
 15 19  1  0  0  0  0
 16 17  1  0  0  0  0
 17 18  2  0  0  0  0
 18 19  1  0  0  0  0
 20 21  1  0  0  0  0
 21 22  2  0  0  0  0
 21 26  1  0  0  0  0
 22 23  1  0  0  0  0
 22 27  1  0  0  0  0
 23 24  2  0  0  0  0
 24 25  1  0  0  0  0
 25 26  2  0  0  0  0
 27 28  2  0  0  0  0
 27 29  2  0  0  0  0
 27 30  1  0  0  0  0
  1 31  1  0  0  0  0
  3 32  1  0  0  0  0
  6 33  1  0  0  0  0
  8 34  1  0  0  0  0
  9 35  1  0  0  0  0
 12 36  1  0  0  0  0
 13 37  1  0  0  0  0
 14 38  1  0  0  0  0
 18 39  1  0  0  0  0
 23 40  1  0  0  0  0
 24 41  1  0  0  0  0
 26 42  1  0  0  0  0
 30 43  1  0  0  0  0
 30 44  1  0  0  0  0
 30 45  1  0  0  0  0
M  END
> <ID>
64

> <IC50[uM]>
0.124

$$$$
64
  -OEChem-05192314313D
 Structure written by MMmdl.
 45 49  0     0  0  0  0  0  0999 V2000
   92.5649   47.3357  266.4780 C   0  0  0  0  0  0  0  0  0  0  0  0
   91.6096   48.3267  266.6685 C   0  0  0  0  0  0  0  0  0  0  0  0
   91.9706   49.5255  267.2755 C   0  0  0  0  0  0  0  0  0  0  0  0
   93.2850   49.7849  267.6888 C   0  0  0  0  0  0  0  0  0  0  0  0
   93.8962   47.5315  266.9149 C   0  0  0  0  0  0  0  0  0  0  0  0
   94.2730   48.7725  267.5157 C   0  0  0  0  0  0  0  0  0  0  0  0
   95.5623   48.9611  267.9440 N   0  0  0  0  0  0  0  0  0  0  0  0
   96.4530   47.9549  267.7607 C   0  0  0  0  0  0  0  0  0  0  0  0
   96.0604   46.7398  267.2043 C   0  0  0  0  0  0  0  0  0  0  0  0
   94.8009   46.5220  266.7799 N   0  0  0  0  0  0  0  0  0  0  0  0
   93.5830   51.0799  268.3394 C   0  0  0  0  0  0  0  0  0  0  0  0
   94.5627   51.9319  267.8062 C   0  0  0  0  0  0  0  0  0  0  0  0
   94.8597   53.1715  268.3735 C   0  0  0  0  0  0  0  0  0  0  0  0
   92.8765   51.4421  269.4881 C   0  0  0  0  0  0  0  0  0  0  0  0
   93.1675   52.6783  270.0741 C   0  0  0  0  0  0  0  0  0  0  0  0
   94.1347   53.5526  269.5062 C   0  0  0  0  0  0  0  0  0  0  0  0
   94.3115   54.7222  270.1528 N   0  0  0  0  0  0  0  0  0  0  0  0
   93.5858   54.7561  271.2381 C   0  0  0  0  0  0  0  0  0  0  0  0
   92.5123   53.4088  271.5255 S   0  0  0  0  0  0  0  0  0  0  0  0
   90.2698   48.1142  266.3113 N   0  0  0  0  0  0  0  0  0  0  0  0
   89.7130   47.3380  265.2849 C   0  0  0  0  0  0  0  0  0  0  0  0
   88.4197   46.7984  265.3938 C   0  0  0  0  0  0  0  0  0  0  0  0
   87.8833   46.0898  264.3143 C   0  0  0  0  0  0  0  0  0  0  0  0
   88.6520   45.9437  263.1599 C   0  0  0  0  0  0  0  0  0  0  0  0
   89.9057   46.4470  263.0359 N   0  0  0  0  0  0  0  0  0  0  0  0
   90.4150   47.1276  264.0943 C   0  0  0  0  0  0  0  0  0  0  0  0
   87.4814   46.8888  266.9221 S   0  0  0  0  0  0  0  0  0  0  0  0
   86.1277   46.3901  266.6642 O   0  0  0  0  0  0  0  0  0  0  0  0
   87.6791   48.2295  267.4834 O   0  0  0  0  0  0  0  0  0  0  0  0
   88.3741   45.6337  268.0075 C   0  0  0  0  0  0  0  0  0  0  0  0
   92.2895   46.4106  265.9936 H   0  0  0  0  0  0  0  0  0  0  0  0
   91.2143   50.2802  267.4333 H   0  0  0  0  0  0  0  0  0  0  0  0
   97.2460   48.3541  267.1113 H   0  0  0  0  0  0  0  0  0  0  0  0
   96.8718   47.7241  268.7513 H   0  0  0  0  0  0  0  0  0  0  0  0
   96.7886   45.9478  267.1103 H   0  0  0  0  0  0  0  0  0  0  0  0
   95.1051   51.6172  266.9269 H   0  0  0  0  0  0  0  0  0  0  0  0
   95.6209   53.8123  267.9534 H   0  0  0  0  0  0  0  0  0  0  0  0
   92.1285   50.7879  269.9110 H   0  0  0  0  0  0  0  0  0  0  0  0
   93.6470   55.5835  271.9296 H   0  0  0  0  0  0  0  0  0  0  0  0
   86.8926   45.6638  264.3734 H   0  0  0  0  0  0  0  0  0  0  0  0
   88.2292   45.4044  262.3252 H   0  0  0  0  0  0  0  0  0  0  0  0
   91.4149   47.5275  264.0123 H   0  0  0  0  0  0  0  0  0  0  0  0
   87.8889   45.5903  268.9937 H   0  0  0  0  0  0  0  0  0  0  0  0
   88.3301   44.6421  267.5334 H   0  0  0  0  0  0  0  0  0  0  0  0
   89.4248   45.9358  268.1289 H   0  0  0  0  0  0  0  0  0  0  0  0
  1  2  1  0  0  0  0
  1  5  2  0  0  0  0
  2  3  1  0  0  0  0
  2 20  2  3  0  0  0
  3  4  2  0  0  0  0
  4  6  1  0  0  0  0
  4 11  1  0  0  0  0
  5  6  1  0  0  0  0
  5 10  1  0  0  0  0
  6  7  2  0  0  0  0
  7  8  1  0  0  0  0
  8  9  1  0  0  0  0
  9 10  2  0  0  0  0
 11 12  2  0  0  0  0
 11 14  1  0  0  0  0
 12 13  1  0  0  0  0
 13 16  2  0  0  0  0
 14 15  2  0  0  0  0
 15 16  1  0  0  0  0
 15 19  1  0  0  0  0
 16 17  1  0  0  0  0
 17 18  2  0  0  0  0
 18 19  1  0  0  0  0
 20 21  1  0  0  0  0
 21 22  2  0  0  0  0
 21 26  1  0  0  0  0
 22 23  1  0  0  0  0
 22 27  1  0  0  0  0
 23 24  2  0  0  0  0
 24 25  1  0  0  0  0
 25 26  2  0  0  0  0
 27 28  2  0  0  0  0
 27 29  2  0  0  0  0
 27 30  1  0  0  0  0
  1 31  1  0  0  0  0
  3 32  1  0  0  0  0
  8 33  1  0  0  0  0
  8 34  1  0  0  0  0
  9 35  1  0  0  0  0
 12 36  1  0  0  0  0
 13 37  1  0  0  0  0
 14 38  1  0  0  0  0
 18 39  1  0  0  0  0
 23 40  1  0  0  0  0
 24 41  1  0  0  0  0
 26 42  1  0  0  0  0
 30 43  1  0  0  0  0
 30 44  1  0  0  0  0
 30 45  1  0  0  0  0
M  END
> <ID>
64

> <IC50[uM]>
0.124

$$$$
