29
  -OEChem-05192314313D
 Structure written by MMmdl.
 51 55  0     0  0  0  0  0  0999 V2000
   90.2429   48.1499  266.3259 N   0  0  0  0  0  0  0  0  0  0  0  0
   91.5915   48.3463  266.6440 C   0  0  0  0  0  0  0  0  0  0  0  0
   91.9574   49.5395  267.2559 C   0  0  0  0  0  0  0  0  0  0  0  0
   93.2671   49.7858  267.6847 C   0  0  0  0  0  0  0  0  0  0  0  0
   94.2480   48.7609  267.5164 C   0  0  0  0  0  0  0  0  0  0  0  0
   93.8706   47.5246  266.9023 C   0  0  0  0  0  0  0  0  0  0  0  0
   92.5420   47.3500  266.4404 C   0  0  0  0  0  0  0  0  0  0  0  0
   93.5621   51.0725  268.3476 C   0  0  0  0  0  0  0  0  0  0  0  0
   94.5377   51.9183  267.8084 C   0  0  0  0  0  0  0  0  0  0  0  0
   94.8189   53.1557  268.3917 C   0  0  0  0  0  0  0  0  0  0  0  0
   94.1002   53.5562  269.5191 C   0  0  0  0  0  0  0  0  0  0  0  0
   93.1598   52.6544  270.0934 C   0  0  0  0  0  0  0  0  0  0  0  0
   92.8672   51.4224  269.5078 C   0  0  0  0  0  0  0  0  0  0  0  0
   94.1039   54.7259  270.3250 C   0  0  0  0  0  0  0  0  0  0  0  0
   93.3196   54.4659  271.4136 C   0  0  0  0  0  0  0  0  0  0  0  0
   92.6997   53.2477  271.2657 N   0  0  0  0  0  0  0  0  0  0  0  0
   91.7777   52.6682  272.2304 C   0  0  0  0  0  0  0  0  0  0  0  0
   94.7782   46.5125  266.7757 N   0  0  0  0  0  0  0  0  0  0  0  0
   96.0421   46.7292  267.2110 C   0  0  0  0  0  0  0  0  0  0  0  0
   96.4257   47.9449  267.7634 C   0  0  0  0  0  0  0  0  0  0  0  0
   95.5326   48.9464  267.9520 N   0  0  0  0  0  0  0  0  0  0  0  0
   89.6492   47.3982  265.3040 C   0  0  0  0  0  0  0  0  0  0  0  0
   88.4421   46.7054  265.5047 C   0  0  0  0  0  0  0  0  0  0  0  0
   87.8175   46.0683  264.4281 C   0  0  0  0  0  0  0  0  0  0  0  0
   88.3808   46.1261  263.1569 C   0  0  0  0  0  0  0  0  0  0  0  0
   89.5836   46.7997  262.9557 C   0  0  0  0  0  0  0  0  0  0  0  0
   90.2205   47.4179  264.0292 C   0  0  0  0  0  0  0  0  0  0  0  0
   87.7197   46.6216  267.1428 S   0  0  0  0  0  0  0  0  0  0  0  0
   88.7306   45.3939  268.1466 C   0  0  0  0  0  0  0  0  0  0  0  0
   87.9054   47.9440  267.7429 O   0  0  0  0  0  0  0  0  0  0  0  0
   86.3737   46.0712  266.9700 O   0  0  0  0  0  0  0  0  0  0  0  0
   89.5981   48.6234  266.9259 H   0  0  0  0  0  0  0  0  0  0  0  0
   91.2068   50.3015  267.4054 H   0  0  0  0  0  0  0  0  0  0  0  0
   92.2660   46.4401  265.9283 H   0  0  0  0  0  0  0  0  0  0  0  0
   95.0815   51.6096  266.9279 H   0  0  0  0  0  0  0  0  0  0  0  0
   95.5833   53.7950  267.9754 H   0  0  0  0  0  0  0  0  0  0  0  0
   92.1285   50.7616  269.9369 H   0  0  0  0  0  0  0  0  0  0  0  0
   94.6278   55.6471  270.1168 H   0  0  0  0  0  0  0  0  0  0  0  0
   93.2038   55.1208  272.2646 H   0  0  0  0  0  0  0  0  0  0  0  0
   91.6078   53.3816  273.0503 H   0  0  0  0  0  0  0  0  0  0  0  0
   90.8214   52.4447  271.7349 H   0  0  0  0  0  0  0  0  0  0  0  0
   92.2066   51.7398  272.6354 H   0  0  0  0  0  0  0  0  0  0  0  0
   96.7707   45.9365  267.1266 H   0  0  0  0  0  0  0  0  0  0  0  0
   97.4566   48.0948  268.0483 H   0  0  0  0  0  0  0  0  0  0  0  0
   86.8946   45.5294  264.5836 H   0  0  0  0  0  0  0  0  0  0  0  0
   87.8848   45.6481  262.3251 H   0  0  0  0  0  0  0  0  0  0  0  0
   90.0213   46.8425  261.9693 H   0  0  0  0  0  0  0  0  0  0  0  0
   91.1654   47.9175  263.8745 H   0  0  0  0  0  0  0  0  0  0  0  0
   88.3132   45.3176  269.1615 H   0  0  0  0  0  0  0  0  0  0  0  0
   88.6965   44.4074  267.6611 H   0  0  0  0  0  0  0  0  0  0  0  0
   89.7737   45.7384  268.2042 H   0  0  0  0  0  0  0  0  0  0  0  0
  1  2  1  0  0  0  0
  1 22  1  0  0  0  0
  2  3  2  0  0  0  0
  2  7  1  0  0  0  0
  3  4  1  0  0  0  0
  4  5  2  0  0  0  0
  4  8  1  0  0  0  0
  5 21  1  0  0  0  0
  5  6  1  0  0  0  0
  6  7  2  0  0  0  0
  6 18  1  0  0  0  0
  8  9  2  0  0  0  0
  8 13  1  0  0  0  0
  9 10  1  0  0  0  0
 10 11  2  0  0  0  0
 11 12  1  0  0  0  0
 11 14  1  0  0  0  0
 12 13  2  0  0  0  0
 12 16  1  0  0  0  0
 14 15  2  0  0  0  0
 15 16  1  0  0  0  0
 16 17  1  0  0  0  0
 18 19  2  0  0  0  0
 19 20  1  0  0  0  0
 20 21  2  0  0  0  0
 22 23  2  0  0  0  0
 22 27  1  0  0  0  0
 23 24  1  0  0  0  0
 23 28  1  0  0  0  0
 24 25  2  0  0  0  0
 25 26  1  0  0  0  0
 26 27  2  0  0  0  0
 28 29  1  0  0  0  0
 28 30  2  0  0  0  0
 28 31  2  0  0  0  0
  1 32  1  0  0  0  0
  3 33  1  0  0  0  0
  7 34  1  0  0  0  0
  9 35  1  0  0  0  0
 10 36  1  0  0  0  0
 13 37  1  0  0  0  0
 14 38  1  0  0  0  0
 15 39  1  0  0  0  0
 17 40  1  0  0  0  0
 17 41  1  0  0  0  0
 17 42  1  0  0  0  0
 19 43  1  0  0  0  0
 20 44  1  0  0  0  0
 24 45  1  0  0  0  0
 25 46  1  0  0  0  0
 26 47  1  0  0  0  0
 27 48  1  0  0  0  0
 29 49  1  0  0  0  0
 29 50  1  0  0  0  0
 29 51  1  0  0  0  0
M  END
> <ID>
29

> <IC50[uM]>
0.085

$$$$
29
  -OEChem-05192314313D
 Structure written by MMmdl.
 51 55  0     0  0  0  0  0  0999 V2000
   90.2429   48.1499  266.3259 N   0  0  0  0  0  0  0  0  0  0  0  0
   91.5915   48.3463  266.6440 C   0  0  0  0  0  0  0  0  0  0  0  0
   91.9574   49.5395  267.2559 C   0  0  0  0  0  0  0  0  0  0  0  0
   93.2671   49.7858  267.6847 C   0  0  0  0  0  0  0  0  0  0  0  0
   94.2480   48.7609  267.5164 C   0  0  0  0  0  0  0  0  0  0  0  0
   93.8706   47.5246  266.9023 C   0  0  0  0  0  0  0  0  0  0  0  0
   92.5420   47.3500  266.4404 C   0  0  0  0  0  0  0  0  0  0  0  0
   93.5621   51.0725  268.3476 C   0  0  0  0  0  0  0  0  0  0  0  0
   94.5377   51.9183  267.8084 C   0  0  0  0  0  0  0  0  0  0  0  0
   94.8189   53.1557  268.3917 C   0  0  0  0  0  0  0  0  0  0  0  0
   94.1002   53.5562  269.5191 C   0  0  0  0  0  0  0  0  0  0  0  0
   93.1598   52.6544  270.0934 C   0  0  0  0  0  0  0  0  0  0  0  0
   92.8672   51.4224  269.5078 C   0  0  0  0  0  0  0  0  0  0  0  0
   94.1039   54.7259  270.3250 C   0  0  0  0  0  0  0  0  0  0  0  0
   93.3196   54.4659  271.4136 C   0  0  0  0  0  0  0  0  0  0  0  0
   92.6997   53.2477  271.2657 N   0  0  0  0  0  0  0  0  0  0  0  0
   91.7777   52.6682  272.2304 C   0  0  0  0  0  0  0  0  0  0  0  0
   94.7782   46.5125  266.7757 N   0  0  0  0  0  0  0  0  0  0  0  0
   96.0421   46.7292  267.2110 C   0  0  0  0  0  0  0  0  0  0  0  0
   96.4257   47.9449  267.7634 C   0  0  0  0  0  0  0  0  0  0  0  0
   95.5326   48.9464  267.9520 N   0  0  0  0  0  0  0  0  0  0  0  0
   89.6492   47.3982  265.3040 C   0  0  0  0  0  0  0  0  0  0  0  0
   88.4421   46.7054  265.5047 C   0  0  0  0  0  0  0  0  0  0  0  0
   87.8175   46.0683  264.4281 C   0  0  0  0  0  0  0  0  0  0  0  0
   88.3808   46.1261  263.1569 C   0  0  0  0  0  0  0  0  0  0  0  0
   89.5836   46.7997  262.9557 C   0  0  0  0  0  0  0  0  0  0  0  0
   90.2205   47.4179  264.0292 C   0  0  0  0  0  0  0  0  0  0  0  0
   87.7197   46.6216  267.1428 S   0  0  0  0  0  0  0  0  0  0  0  0
   88.7306   45.3939  268.1466 C   0  0  0  0  0  0  0  0  0  0  0  0
   87.9054   47.9440  267.7429 O   0  0  0  0  0  0  0  0  0  0  0  0
   86.3737   46.0712  266.9700 O   0  0  0  0  0  0  0  0  0  0  0  0
   91.2068   50.3015  267.4054 H   0  0  0  0  0  0  0  0  0  0  0  0
   92.2660   46.4401  265.9283 H   0  0  0  0  0  0  0  0  0  0  0  0
   95.0815   51.6096  266.9279 H   0  0  0  0  0  0  0  0  0  0  0  0
   95.5833   53.7950  267.9754 H   0  0  0  0  0  0  0  0  0  0  0  0
   92.1285   50.7616  269.9369 H   0  0  0  0  0  0  0  0  0  0  0  0
   94.6278   55.6471  270.1168 H   0  0  0  0  0  0  0  0  0  0  0  0
   93.2038   55.1208  272.2646 H   0  0  0  0  0  0  0  0  0  0  0  0
   91.6078   53.3816  273.0503 H   0  0  0  0  0  0  0  0  0  0  0  0
   90.8214   52.4447  271.7349 H   0  0  0  0  0  0  0  0  0  0  0  0
   92.2066   51.7398  272.6354 H   0  0  0  0  0  0  0  0  0  0  0  0
   94.5169   45.6354  266.3727 H   0  0  0  0  0  0  0  0  0  0  0  0
   96.7707   45.9365  267.1266 H   0  0  0  0  0  0  0  0  0  0  0  0
   97.4566   48.0948  268.0483 H   0  0  0  0  0  0  0  0  0  0  0  0
   86.8946   45.5294  264.5836 H   0  0  0  0  0  0  0  0  0  0  0  0
   87.8848   45.6481  262.3251 H   0  0  0  0  0  0  0  0  0  0  0  0
   90.0213   46.8425  261.9693 H   0  0  0  0  0  0  0  0  0  0  0  0
   91.1654   47.9175  263.8745 H   0  0  0  0  0  0  0  0  0  0  0  0
   88.3132   45.3176  269.1615 H   0  0  0  0  0  0  0  0  0  0  0  0
   88.6965   44.4074  267.6611 H   0  0  0  0  0  0  0  0  0  0  0  0
   89.7737   45.7384  268.2042 H   0  0  0  0  0  0  0  0  0  0  0  0
  1  2  2  0  0  0  0
  1 22  1  0  0  0  0
  2  3  1  0  0  0  0
  2  7  1  0  0  0  0
  3  4  2  0  0  0  0
  4  5  1  0  0  0  0
  4  8  1  0  0  0  0
  5 21  2  0  0  0  0
  5  6  1  0  0  0  0
  6  7  2  0  0  0  0
  6 18  1  0  0  0  0
  8  9  2  0  0  0  0
  8 13  1  0  0  0  0
  9 10  1  0  0  0  0
 10 11  2  0  0  0  0
 11 12  1  0  0  0  0
 11 14  1  0  0  0  0
 12 13  2  0  0  0  0
 12 16  1  0  0  0  0
 14 15  2  0  0  0  0
 15 16  1  0  0  0  0
 16 17  1  0  0  0  0
 18 19  1  0  0  0  0
 19 20  2  0  0  0  0
 20 21  1  0  0  0  0
 22 23  2  0  0  0  0
 22 27  1  0  0  0  0
 23 24  1  0  0  0  0
 23 28  1  0  0  0  0
 24 25  2  0  0  0  0
 25 26  1  0  0  0  0
 26 27  2  0  0  0  0
 28 29  1  0  0  0  0
 28 30  2  0  0  0  0
 28 31  2  0  0  0  0
  3 32  1  0  0  0  0
  7 33  1  0  0  0  0
  9 34  1  0  0  0  0
 10 35  1  0  0  0  0
 13 36  1  0  0  0  0
 14 37  1  0  0  0  0
 15 38  1  0  0  0  0
 17 39  1  0  0  0  0
 17 40  1  0  0  0  0
 17 41  1  0  0  0  0
 18 42  1  0  0  0  0
 19 43  1  0  0  0  0
 20 44  1  0  0  0  0
 24 45  1  0  0  0  0
 25 46  1  0  0  0  0
 26 47  1  0  0  0  0
 27 48  1  0  0  0  0
 29 49  1  0  0  0  0
 29 50  1  0  0  0  0
 29 51  1  0  0  0  0
M  END
> <ID>
29

> <IC50[uM]>
0.085

$$$$
29
  -OEChem-05192314313D
 Structure written by MMmdl.
 51 55  0     0  0  0  0  0  0999 V2000
   90.2429   48.1499  266.3259 N   0  0  0  0  0  0  0  0  0  0  0  0
   91.5915   48.3463  266.6440 C   0  0  0  0  0  0  0  0  0  0  0  0
   91.9574   49.5395  267.2559 C   0  0  0  0  0  0  0  0  0  0  0  0
   93.2671   49.7858  267.6847 C   0  0  0  0  0  0  0  0  0  0  0  0
   94.2480   48.7609  267.5164 C   0  0  0  0  0  0  0  0  0  0  0  0
   93.8706   47.5246  266.9023 C   0  0  0  0  0  0  0  0  0  0  0  0
   92.5420   47.3500  266.4404 C   0  0  0  0  0  0  0  0  0  0  0  0
   93.5621   51.0725  268.3476 C   0  0  0  0  0  0  0  0  0  0  0  0
   94.5377   51.9183  267.8084 C   0  0  0  0  0  0  0  0  0  0  0  0
   94.8189   53.1557  268.3917 C   0  0  0  0  0  0  0  0  0  0  0  0
   94.1002   53.5562  269.5191 C   0  0  0  0  0  0  0  0  0  0  0  0
   93.1598   52.6544  270.0934 C   0  0  0  0  0  0  0  0  0  0  0  0
   92.8672   51.4224  269.5078 C   0  0  0  0  0  0  0  0  0  0  0  0
   94.1039   54.7259  270.3250 C   0  0  0  0  0  0  0  0  0  0  0  0
   93.3196   54.4659  271.4136 C   0  0  0  0  0  0  0  0  0  0  0  0
   92.6997   53.2477  271.2657 N   0  0  0  0  0  0  0  0  0  0  0  0
   91.7777   52.6682  272.2304 C   0  0  0  0  0  0  0  0  0  0  0  0
   94.7782   46.5125  266.7757 N   0  0  0  0  0  0  0  0  0  0  0  0
   96.0421   46.7292  267.2110 C   0  0  0  0  0  0  0  0  0  0  0  0
   96.4257   47.9449  267.7634 C   0  0  0  0  0  0  0  0  0  0  0  0
   95.5326   48.9464  267.9520 N   0  0  0  0  0  0  0  0  0  0  0  0
   89.6492   47.3982  265.3040 C   0  0  0  0  0  0  0  0  0  0  0  0
   88.4421   46.7054  265.5047 C   0  0  0  0  0  0  0  0  0  0  0  0
   87.8175   46.0683  264.4281 C   0  0  0  0  0  0  0  0  0  0  0  0
   88.3808   46.1261  263.1569 C   0  0  0  0  0  0  0  0  0  0  0  0
   89.5836   46.7997  262.9557 C   0  0  0  0  0  0  0  0  0  0  0  0
   90.2205   47.4179  264.0292 C   0  0  0  0  0  0  0  0  0  0  0  0
   87.7197   46.6216  267.1428 S   0  0  0  0  0  0  0  0  0  0  0  0
   88.7306   45.3939  268.1466 C   0  0  0  0  0  0  0  0  0  0  0  0
   87.9054   47.9440  267.7429 O   0  0  0  0  0  0  0  0  0  0  0  0
   86.3737   46.0712  266.9700 O   0  0  0  0  0  0  0  0  0  0  0  0
   91.2068   50.3015  267.4054 H   0  0  0  0  0  0  0  0  0  0  0  0
   92.1558   46.4409  266.9245 H   0  0  0  0  0  0  0  0  0  0  0  0
   92.6035   47.1890  265.3540 H   0  0  0  0  0  0  0  0  0  0  0  0
   95.0815   51.6096  266.9279 H   0  0  0  0  0  0  0  0  0  0  0  0
   95.5833   53.7950  267.9754 H   0  0  0  0  0  0  0  0  0  0  0  0
   92.1285   50.7616  269.9369 H   0  0  0  0  0  0  0  0  0  0  0  0
   94.6278   55.6471  270.1168 H   0  0  0  0  0  0  0  0  0  0  0  0
   93.2038   55.1208  272.2646 H   0  0  0  0  0  0  0  0  0  0  0  0
   91.6078   53.3816  273.0503 H   0  0  0  0  0  0  0  0  0  0  0  0
   90.8214   52.4447  271.7349 H   0  0  0  0  0  0  0  0  0  0  0  0
   92.2066   51.7398  272.6354 H   0  0  0  0  0  0  0  0  0  0  0  0
   96.7707   45.9365  267.1266 H   0  0  0  0  0  0  0  0  0  0  0  0
   97.4566   48.0948  268.0483 H   0  0  0  0  0  0  0  0  0  0  0  0
   86.8946   45.5294  264.5836 H   0  0  0  0  0  0  0  0  0  0  0  0
   87.8848   45.6481  262.3251 H   0  0  0  0  0  0  0  0  0  0  0  0
   90.0213   46.8425  261.9693 H   0  0  0  0  0  0  0  0  0  0  0  0
   91.1654   47.9175  263.8745 H   0  0  0  0  0  0  0  0  0  0  0  0
   88.3132   45.3176  269.1615 H   0  0  0  0  0  0  0  0  0  0  0  0
   88.6965   44.4074  267.6611 H   0  0  0  0  0  0  0  0  0  0  0  0
   89.7737   45.7384  268.2042 H   0  0  0  0  0  0  0  0  0  0  0  0
  1  2  2  0  0  0  0
  1 22  1  0  0  0  0
  2  3  1  0  0  0  0
  2  7  1  0  0  0  0
  3  4  2  0  0  0  0
  4  5  1  0  0  0  0
  4  8  1  0  0  0  0
  5 21  2  0  0  0  0
  5  6  1  0  0  0  0
  6  7  1  0  0  0  0
  6 18  2  0  0  0  0
  8  9  2  0  0  0  0
  8 13  1  0  0  0  0
  9 10  1  0  0  0  0
 10 11  2  0  0  0  0
 11 12  1  0  0  0  0
 11 14  1  0  0  0  0
 12 13  2  0  0  0  0
 12 16  1  0  0  0  0
 14 15  2  0  0  0  0
 15 16  1  0  0  0  0
 16 17  1  0  0  0  0
 18 19  1  0  0  0  0
 19 20  2  0  0  0  0
 20 21  1  0  0  0  0
 22 23  2  0  0  0  0
 22 27  1  0  0  0  0
 23 24  1  0  0  0  0
 23 28  1  0  0  0  0
 24 25  2  0  0  0  0
 25 26  1  0  0  0  0
 26 27  2  0  0  0  0
 28 29  1  0  0  0  0
 28 30  2  0  0  0  0
 28 31  2  0  0  0  0
  3 32  1  0  0  0  0
  7 33  1  0  0  0  0
  7 34  1  0  0  0  0
  9 35  1  0  0  0  0
 10 36  1  0  0  0  0
 13 37  1  0  0  0  0
 14 38  1  0  0  0  0
 15 39  1  0  0  0  0
 17 40  1  0  0  0  0
 17 41  1  0  0  0  0
 17 42  1  0  0  0  0
 19 43  1  0  0  0  0
 20 44  1  0  0  0  0
 24 45  1  0  0  0  0
 25 46  1  0  0  0  0
 26 47  1  0  0  0  0
 27 48  1  0  0  0  0
 29 49  1  0  0  0  0
 29 50  1  0  0  0  0
 29 51  1  0  0  0  0
M  END
> <ID>
29

> <IC50[uM]>
0.085

$$$$
29
  -OEChem-05192314313D
 Structure written by MMmdl.
 51 55  0     0  0  0  0  0  0999 V2000
   90.2429   48.1499  266.3259 N   0  0  0  0  0  0  0  0  0  0  0  0
   91.5915   48.3463  266.6440 C   0  0  0  0  0  0  0  0  0  0  0  0
   91.9574   49.5395  267.2559 C   0  0  0  0  0  0  0  0  0  0  0  0
   93.2671   49.7858  267.6847 C   0  0  0  0  0  0  0  0  0  0  0  0
   94.2480   48.7609  267.5164 C   0  0  0  0  0  0  0  0  0  0  0  0
   93.8706   47.5246  266.9023 C   0  0  0  0  0  0  0  0  0  0  0  0
   92.5420   47.3500  266.4404 C   0  0  0  0  0  0  0  0  0  0  0  0
   93.5621   51.0725  268.3476 C   0  0  0  0  0  0  0  0  0  0  0  0
   94.5377   51.9183  267.8084 C   0  0  0  0  0  0  0  0  0  0  0  0
   94.8189   53.1557  268.3917 C   0  0  0  0  0  0  0  0  0  0  0  0
   94.1002   53.5562  269.5191 C   0  0  0  0  0  0  0  0  0  0  0  0
   93.1598   52.6544  270.0934 C   0  0  0  0  0  0  0  0  0  0  0  0
   92.8672   51.4224  269.5078 C   0  0  0  0  0  0  0  0  0  0  0  0
   94.1039   54.7259  270.3250 C   0  0  0  0  0  0  0  0  0  0  0  0
   93.3196   54.4659  271.4136 C   0  0  0  0  0  0  0  0  0  0  0  0
   92.6997   53.2477  271.2657 N   0  0  0  0  0  0  0  0  0  0  0  0
   91.7777   52.6682  272.2304 C   0  0  0  0  0  0  0  0  0  0  0  0
   94.7782   46.5125  266.7757 N   0  0  0  0  0  0  0  0  0  0  0  0
   96.0421   46.7292  267.2110 C   0  0  0  0  0  0  0  0  0  0  0  0
   96.4257   47.9449  267.7634 C   0  0  0  0  0  0  0  0  0  0  0  0
   95.5326   48.9464  267.9520 N   0  0  0  0  0  0  0  0  0  0  0  0
   89.6492   47.3982  265.3040 C   0  0  0  0  0  0  0  0  0  0  0  0
   88.4421   46.7054  265.5047 C   0  0  0  0  0  0  0  0  0  0  0  0
   87.8175   46.0683  264.4281 C   0  0  0  0  0  0  0  0  0  0  0  0
   88.3808   46.1261  263.1569 C   0  0  0  0  0  0  0  0  0  0  0  0
   89.5836   46.7997  262.9557 C   0  0  0  0  0  0  0  0  0  0  0  0
   90.2205   47.4179  264.0292 C   0  0  0  0  0  0  0  0  0  0  0  0
   87.7197   46.6216  267.1428 S   0  0  0  0  0  0  0  0  0  0  0  0
   88.7306   45.3939  268.1466 C   0  0  0  0  0  0  0  0  0  0  0  0
   87.9054   47.9440  267.7429 O   0  0  0  0  0  0  0  0  0  0  0  0
   86.3737   46.0712  266.9700 O   0  0  0  0  0  0  0  0  0  0  0  0
   91.7128   50.3389  266.5410 H   0  0  0  0  0  0  0  0  0  0  0  0
   91.3192   49.6362  268.1466 H   0  0  0  0  0  0  0  0  0  0  0  0
   92.2660   46.4401  265.9283 H   0  0  0  0  0  0  0  0  0  0  0  0
   95.0815   51.6096  266.9279 H   0  0  0  0  0  0  0  0  0  0  0  0
   95.5833   53.7950  267.9754 H   0  0  0  0  0  0  0  0  0  0  0  0
   92.1285   50.7616  269.9369 H   0  0  0  0  0  0  0  0  0  0  0  0
   94.6278   55.6471  270.1168 H   0  0  0  0  0  0  0  0  0  0  0  0
   93.2038   55.1208  272.2646 H   0  0  0  0  0  0  0  0  0  0  0  0
   91.6078   53.3816  273.0503 H   0  0  0  0  0  0  0  0  0  0  0  0
   90.8214   52.4447  271.7349 H   0  0  0  0  0  0  0  0  0  0  0  0
   92.2066   51.7398  272.6354 H   0  0  0  0  0  0  0  0  0  0  0  0
   96.7707   45.9365  267.1266 H   0  0  0  0  0  0  0  0  0  0  0  0
   97.4566   48.0948  268.0483 H   0  0  0  0  0  0  0  0  0  0  0  0
   86.8946   45.5294  264.5836 H   0  0  0  0  0  0  0  0  0  0  0  0
   87.8848   45.6481  262.3251 H   0  0  0  0  0  0  0  0  0  0  0  0
   90.0213   46.8425  261.9693 H   0  0  0  0  0  0  0  0  0  0  0  0
   91.1654   47.9175  263.8745 H   0  0  0  0  0  0  0  0  0  0  0  0
   88.3132   45.3176  269.1615 H   0  0  0  0  0  0  0  0  0  0  0  0
   88.6965   44.4074  267.6611 H   0  0  0  0  0  0  0  0  0  0  0  0
   89.7737   45.7384  268.2042 H   0  0  0  0  0  0  0  0  0  0  0  0
  1  2  2  0  0  0  0
  1 22  1  0  0  0  0
  2  3  1  0  0  0  0
  2  7  1  0  0  0  0
  3  4  1  0  0  0  0
  4  5  2  0  0  0  0
  4  8  1  0  0  0  0
  5 21  1  0  0  0  0
  5  6  1  0  0  0  0
  6  7  2  0  0  0  0
  6 18  1  0  0  0  0
  8  9  2  0  0  0  0
  8 13  1  0  0  0  0
  9 10  1  0  0  0  0
 10 11  2  0  0  0  0
 11 12  1  0  0  0  0
 11 14  1  0  0  0  0
 12 13  2  0  0  0  0
 12 16  1  0  0  0  0
 14 15  2  0  0  0  0
 15 16  1  0  0  0  0
 16 17  1  0  0  0  0
 18 19  2  0  0  0  0
 19 20  1  0  0  0  0
 20 21  2  0  0  0  0
 22 23  2  0  0  0  0
 22 27  1  0  0  0  0
 23 24  1  0  0  0  0
 23 28  1  0  0  0  0
 24 25  2  0  0  0  0
 25 26  1  0  0  0  0
 26 27  2  0  0  0  0
 28 29  1  0  0  0  0
 28 30  2  0  0  0  0
 28 31  2  0  0  0  0
  3 32  1  0  0  0  0
  3 33  1  0  0  0  0
  7 34  1  0  0  0  0
  9 35  1  0  0  0  0
 10 36  1  0  0  0  0
 13 37  1  0  0  0  0
 14 38  1  0  0  0  0
 15 39  1  0  0  0  0
 17 40  1  0  0  0  0
 17 41  1  0  0  0  0
 17 42  1  0  0  0  0
 19 43  1  0  0  0  0
 20 44  1  0  0  0  0
 24 45  1  0  0  0  0
 25 46  1  0  0  0  0
 26 47  1  0  0  0  0
 27 48  1  0  0  0  0
 29 49  1  0  0  0  0
 29 50  1  0  0  0  0
 29 51  1  0  0  0  0
M  END
> <ID>
29

> <IC50[uM]>
0.085

$$$$
29
  -OEChem-05192314313D
 Structure written by MMmdl.
 51 55  0     1  0  0  0  0  0999 V2000
   90.2429   48.1499  266.3259 N   0  0  0  0  0  0  0  0  0  0  0  0
   91.5915   48.3463  266.6440 C   0  0  0  0  0  0  0  0  0  0  0  0
   91.9574   49.5395  267.2559 C   0  0  0  0  0  0  0  0  0  0  0  0
   93.2671   49.7858  267.6847 C   0  0  0  0  0  0  0  0  0  0  0  0
   94.2480   48.7609  267.5164 C   0  0  0  0  0  0  0  0  0  0  0  0
   93.8706   47.5246  266.9023 C   0  0  0  0  0  0  0  0  0  0  0  0
   92.5420   47.3500  266.4404 C   0  0  0  0  0  0  0  0  0  0  0  0
   93.5621   51.0725  268.3476 C   0  0  0  0  0  0  0  0  0  0  0  0
   94.5377   51.9183  267.8084 C   0  0  0  0  0  0  0  0  0  0  0  0
   94.8189   53.1557  268.3917 C   0  0  0  0  0  0  0  0  0  0  0  0
   94.1002   53.5562  269.5191 C   0  0  0  0  0  0  0  0  0  0  0  0
   93.1598   52.6544  270.0934 C   0  0  0  0  0  0  0  0  0  0  0  0
   92.8672   51.4224  269.5078 C   0  0  0  0  0  0  0  0  0  0  0  0
   94.1039   54.7259  270.3250 C   0  0  0  0  0  0  0  0  0  0  0  0
   93.3196   54.4659  271.4136 C   0  0  0  0  0  0  0  0  0  0  0  0
   92.6997   53.2477  271.2657 N   0  0  0  0  0  0  0  0  0  0  0  0
   91.7777   52.6682  272.2304 C   0  0  0  0  0  0  0  0  0  0  0  0
   94.7782   46.5125  266.7757 N   0  0  0  0  0  0  0  0  0  0  0  0
   96.0421   46.7292  267.2110 C   0  0  0  0  0  0  0  0  0  0  0  0
   96.4257   47.9449  267.7634 C   0  0  0  0  0  0  0  0  0  0  0  0
   95.5326   48.9464  267.9520 N   0  0  0  0  0  0  0  0  0  0  0  0
   89.6492   47.3982  265.3040 C   0  0  0  0  0  0  0  0  0  0  0  0
   88.4421   46.7054  265.5047 C   0  0  3  0  0  0  0  0  0  0  0  0
   87.8175   46.0683  264.4281 C   0  0  0  0  0  0  0  0  0  0  0  0
   88.3808   46.1261  263.1569 C   0  0  0  0  0  0  0  0  0  0  0  0
   89.5836   46.7997  262.9557 C   0  0  0  0  0  0  0  0  0  0  0  0
   90.2205   47.4179  264.0292 C   0  0  0  0  0  0  0  0  0  0  0  0
   87.7197   46.6216  267.1428 S   0  0  0  0  0  0  0  0  0  0  0  0
   88.7306   45.3939  268.1466 C   0  0  0  0  0  0  0  0  0  0  0  0
   87.9054   47.9440  267.7429 O   0  0  0  0  0  0  0  0  0  0  0  0
   86.3737   46.0712  266.9700 O   0  0  0  0  0  0  0  0  0  0  0  0
   91.2068   50.3015  267.4054 H   0  0  0  0  0  0  0  0  0  0  0  0
   92.2660   46.4401  265.9283 H   0  0  0  0  0  0  0  0  0  0  0  0
   95.0815   51.6096  266.9279 H   0  0  0  0  0  0  0  0  0  0  0  0
   95.5833   53.7950  267.9754 H   0  0  0  0  0  0  0  0  0  0  0  0
   92.1285   50.7616  269.9369 H   0  0  0  0  0  0  0  0  0  0  0  0
   94.6278   55.6471  270.1168 H   0  0  0  0  0  0  0  0  0  0  0  0
   93.2038   55.1208  272.2646 H   0  0  0  0  0  0  0  0  0  0  0  0
   91.6078   53.3816  273.0503 H   0  0  0  0  0  0  0  0  0  0  0  0
   90.8214   52.4447  271.7349 H   0  0  0  0  0  0  0  0  0  0  0  0
   92.2066   51.7398  272.6354 H   0  0  0  0  0  0  0  0  0  0  0  0
   96.7707   45.9365  267.1266 H   0  0  0  0  0  0  0  0  0  0  0  0
   97.4566   48.0948  268.0483 H   0  0  0  0  0  0  0  0  0  0  0  0
   87.8743   47.6243  265.2970 H   0  0  0  0  0  0  0  0  0  0  0  0
   86.8946   45.5294  264.5836 H   0  0  0  0  0  0  0  0  0  0  0  0
   87.8848   45.6481  262.3251 H   0  0  0  0  0  0  0  0  0  0  0  0
   90.0213   46.8425  261.9693 H   0  0  0  0  0  0  0  0  0  0  0  0
   91.1654   47.9175  263.8745 H   0  0  0  0  0  0  0  0  0  0  0  0
   88.3132   45.3176  269.1615 H   0  0  0  0  0  0  0  0  0  0  0  0
   88.6965   44.4074  267.6611 H   0  0  0  0  0  0  0  0  0  0  0  0
   89.7737   45.7384  268.2042 H   0  0  0  0  0  0  0  0  0  0  0  0
  1  2  1  0  0  0  0
  1 22  2  3  0  0  0
  2  3  2  0  0  0  0
  2  7  1  0  0  0  0
  3  4  1  0  0  0  0
  4  5  2  0  0  0  0
  4  8  1  0  0  0  0
  5 21  1  0  0  0  0
  5  6  1  0  0  0  0
  6  7  2  0  0  0  0
  6 18  1  0  0  0  0
  8  9  2  0  0  0  0
  8 13  1  0  0  0  0
  9 10  1  0  0  0  0
 10 11  2  0  0  0  0
 11 12  1  0  0  0  0
 11 14  1  0  0  0  0
 12 13  2  0  0  0  0
 12 16  1  0  0  0  0
 14 15  2  0  0  0  0
 15 16  1  0  0  0  0
 16 17  1  0  0  0  0
 18 19  2  0  0  0  0
 19 20  1  0  0  0  0
 20 21  2  0  0  0  0
 22 23  1  0  0  0  0
 22 27  1  0  0  0  0
 23 24  1  0  0  0  0
 23 28  1  0  0  0  0
 24 25  2  0  0  0  0
 25 26  1  0  0  0  0
 26 27  2  0  0  0  0
 28 29  1  0  0  0  0
 28 30  2  0  0  0  0
 28 31  2  0  0  0  0
  3 32  1  0  0  0  0
  7 33  1  0  0  0  0
  9 34  1  0  0  0  0
 10 35  1  0  0  0  0
 13 36  1  0  0  0  0
 14 37  1  0  0  0  0
 15 38  1  0  0  0  0
 17 39  1  0  0  0  0
 17 40  1  0  0  0  0
 17 41  1  0  0  0  0
 19 42  1  0  0  0  0
 20 43  1  0  0  0  0
 23 44  1  0  0  0  0
 24 45  1  0  0  0  0
 25 46  1  0  0  0  0
 26 47  1  0  0  0  0
 27 48  1  0  0  0  0
 29 49  1  0  0  0  0
 29 50  1  0  0  0  0
 29 51  1  0  0  0  0
M  END
> <ID>
29

> <IC50[uM]>
0.085

$$$$
29
  -OEChem-05192314313D
 Structure written by MMmdl.
 51 55  0     0  0  0  0  0  0999 V2000
   90.2429   48.1499  266.3259 N   0  0  0  0  0  0  0  0  0  0  0  0
   91.5915   48.3463  266.6440 C   0  0  0  0  0  0  0  0  0  0  0  0
   91.9574   49.5395  267.2559 C   0  0  0  0  0  0  0  0  0  0  0  0
   93.2671   49.7858  267.6847 C   0  0  0  0  0  0  0  0  0  0  0  0
   94.2480   48.7609  267.5164 C   0  0  0  0  0  0  0  0  0  0  0  0
   93.8706   47.5246  266.9023 C   0  0  0  0  0  0  0  0  0  0  0  0
   92.5420   47.3500  266.4404 C   0  0  0  0  0  0  0  0  0  0  0  0
   93.5621   51.0725  268.3476 C   0  0  0  0  0  0  0  0  0  0  0  0
   94.5377   51.9183  267.8084 C   0  0  0  0  0  0  0  0  0  0  0  0
   94.8189   53.1557  268.3917 C   0  0  0  0  0  0  0  0  0  0  0  0
   94.1002   53.5562  269.5191 C   0  0  0  0  0  0  0  0  0  0  0  0
   93.1598   52.6544  270.0934 C   0  0  0  0  0  0  0  0  0  0  0  0
   92.8672   51.4224  269.5078 C   0  0  0  0  0  0  0  0  0  0  0  0
   94.1039   54.7259  270.3250 C   0  0  0  0  0  0  0  0  0  0  0  0
   93.3196   54.4659  271.4136 C   0  0  0  0  0  0  0  0  0  0  0  0
   92.6997   53.2477  271.2657 N   0  0  0  0  0  0  0  0  0  0  0  0
   91.7777   52.6682  272.2304 C   0  0  0  0  0  0  0  0  0  0  0  0
   94.7782   46.5125  266.7757 N   0  0  0  0  0  0  0  0  0  0  0  0
   96.0421   46.7292  267.2110 C   0  0  0  0  0  0  0  0  0  0  0  0
   96.4257   47.9449  267.7634 C   0  0  0  0  0  0  0  0  0  0  0  0
   95.5326   48.9464  267.9520 N   0  0  0  0  0  0  0  0  0  0  0  0
   89.6492   47.3982  265.3040 C   0  0  0  0  0  0  0  0  0  0  0  0
   88.4421   46.7054  265.5047 C   0  0  0  0  0  0  0  0  0  0  0  0
   87.8175   46.0683  264.4281 C   0  0  0  0  0  0  0  0  0  0  0  0
   88.3808   46.1261  263.1569 C   0  0  0  0  0  0  0  0  0  0  0  0
   89.5836   46.7997  262.9557 C   0  0  0  0  0  0  0  0  0  0  0  0
   90.2205   47.4179  264.0292 C   0  0  0  0  0  0  0  0  0  0  0  0
   87.7197   46.6216  267.1428 S   0  0  0  0  0  0  0  0  0  0  0  0
   88.7306   45.3939  268.1466 C   0  0  0  0  0  0  0  0  0  0  0  0
   87.9054   47.9440  267.7429 O   0  0  0  0  0  0  0  0  0  0  0  0
   86.3737   46.0712  266.9700 O   0  0  0  0  0  0  0  0  0  0  0  0
   91.2068   50.3015  267.4054 H   0  0  0  0  0  0  0  0  0  0  0  0
   92.2660   46.4401  265.9283 H   0  0  0  0  0  0  0  0  0  0  0  0
   95.0815   51.6096  266.9279 H   0  0  0  0  0  0  0  0  0  0  0  0
   95.5833   53.7950  267.9754 H   0  0  0  0  0  0  0  0  0  0  0  0
   92.1285   50.7616  269.9369 H   0  0  0  0  0  0  0  0  0  0  0  0
   94.6278   55.6471  270.1168 H   0  0  0  0  0  0  0  0  0  0  0  0
   93.2038   55.1208  272.2646 H   0  0  0  0  0  0  0  0  0  0  0  0
   91.6078   53.3816  273.0503 H   0  0  0  0  0  0  0  0  0  0  0  0
   90.8214   52.4447  271.7349 H   0  0  0  0  0  0  0  0  0  0  0  0
   92.2066   51.7398  272.6354 H   0  0  0  0  0  0  0  0  0  0  0  0
   96.7707   45.9365  267.1266 H   0  0  0  0  0  0  0  0  0  0  0  0
   97.4566   48.0948  268.0483 H   0  0  0  0  0  0  0  0  0  0  0  0
   86.8946   45.5294  264.5836 H   0  0  0  0  0  0  0  0  0  0  0  0
   88.5414   45.0870  262.8337 H   0  0  0  0  0  0  0  0  0  0  0  0
   87.6369   46.6030  262.5018 H   0  0  0  0  0  0  0  0  0  0  0  0
   90.0213   46.8425  261.9693 H   0  0  0  0  0  0  0  0  0  0  0  0
   91.1654   47.9175  263.8745 H   0  0  0  0  0  0  0  0  0  0  0  0
   88.3132   45.3176  269.1615 H   0  0  0  0  0  0  0  0  0  0  0  0
   88.6965   44.4074  267.6611 H   0  0  0  0  0  0  0  0  0  0  0  0
   89.7737   45.7384  268.2042 H   0  0  0  0  0  0  0  0  0  0  0  0
  1  2  1  0  0  0  0
  1 22  2  3  0  0  0
  2  3  2  0  0  0  0
  2  7  1  0  0  0  0
  3  4  1  0  0  0  0
  4  5  2  0  0  0  0
  4  8  1  0  0  0  0
  5 21  1  0  0  0  0
  5  6  1  0  0  0  0
  6  7  2  0  0  0  0
  6 18  1  0  0  0  0
  8  9  2  0  0  0  0
  8 13  1  0  0  0  0
  9 10  1  0  0  0  0
 10 11  2  0  0  0  0
 11 12  1  0  0  0  0
 11 14  1  0  0  0  0
 12 13  2  0  0  0  0
 12 16  1  0  0  0  0
 14 15  2  0  0  0  0
 15 16  1  0  0  0  0
 16 17  1  0  0  0  0
 18 19  2  0  0  0  0
 19 20  1  0  0  0  0
 20 21  2  0  0  0  0
 22 23  1  0  0  0  0
 22 27  1  0  0  0  0
 23 24  2  0  0  0  0
 23 28  1  0  0  0  0
 24 25  1  0  0  0  0
 25 26  1  0  0  0  0
 26 27  2  0  0  0  0
 28 29  1  0  0  0  0
 28 30  2  0  0  0  0
 28 31  2  0  0  0  0
  3 32  1  0  0  0  0
  7 33  1  0  0  0  0
  9 34  1  0  0  0  0
 10 35  1  0  0  0  0
 13 36  1  0  0  0  0
 14 37  1  0  0  0  0
 15 38  1  0  0  0  0
 17 39  1  0  0  0  0
 17 40  1  0  0  0  0
 17 41  1  0  0  0  0
 19 42  1  0  0  0  0
 20 43  1  0  0  0  0
 24 44  1  0  0  0  0
 25 45  1  0  0  0  0
 25 46  1  0  0  0  0
 26 47  1  0  0  0  0
 27 48  1  0  0  0  0
 29 49  1  0  0  0  0
 29 50  1  0  0  0  0
 29 51  1  0  0  0  0
M  END
> <ID>
29

> <IC50[uM]>
0.085

$$$$
29
  -OEChem-05192314313D
 Structure written by MMmdl.
 51 55  0     0  0  0  0  0  0999 V2000
   90.2429   48.1499  266.3259 N   0  0  0  0  0  0  0  0  0  0  0  0
   91.5915   48.3463  266.6440 C   0  0  0  0  0  0  0  0  0  0  0  0
   91.9574   49.5395  267.2559 C   0  0  0  0  0  0  0  0  0  0  0  0
   93.2671   49.7858  267.6847 C   0  0  0  0  0  0  0  0  0  0  0  0
   94.2480   48.7609  267.5164 C   0  0  0  0  0  0  0  0  0  0  0  0
   93.8706   47.5246  266.9023 C   0  0  0  0  0  0  0  0  0  0  0  0
   92.5420   47.3500  266.4404 C   0  0  0  0  0  0  0  0  0  0  0  0
   93.5621   51.0725  268.3476 C   0  0  0  0  0  0  0  0  0  0  0  0
   94.5377   51.9183  267.8084 C   0  0  0  0  0  0  0  0  0  0  0  0
   94.8189   53.1557  268.3917 C   0  0  0  0  0  0  0  0  0  0  0  0
   94.1002   53.5562  269.5191 C   0  0  0  0  0  0  0  0  0  0  0  0
   93.1598   52.6544  270.0934 C   0  0  0  0  0  0  0  0  0  0  0  0
   92.8672   51.4224  269.5078 C   0  0  0  0  0  0  0  0  0  0  0  0
   94.1039   54.7259  270.3250 C   0  0  0  0  0  0  0  0  0  0  0  0
   93.3196   54.4659  271.4136 C   0  0  0  0  0  0  0  0  0  0  0  0
   92.6997   53.2477  271.2657 N   0  0  0  0  0  0  0  0  0  0  0  0
   91.7777   52.6682  272.2304 C   0  0  0  0  0  0  0  0  0  0  0  0
   94.7782   46.5125  266.7757 N   0  0  0  0  0  0  0  0  0  0  0  0
   96.0421   46.7292  267.2110 C   0  0  0  0  0  0  0  0  0  0  0  0
   96.4257   47.9449  267.7634 C   0  0  0  0  0  0  0  0  0  0  0  0
   95.5326   48.9464  267.9520 N   0  0  0  0  0  0  0  0  0  0  0  0
   89.6492   47.3982  265.3040 C   0  0  0  0  0  0  0  0  0  0  0  0
   88.4421   46.7054  265.5047 C   0  0  0  0  0  0  0  0  0  0  0  0
   87.8175   46.0683  264.4281 C   0  0  0  0  0  0  0  0  0  0  0  0
   88.3808   46.1261  263.1569 C   0  0  0  0  0  0  0  0  0  0  0  0
   89.5836   46.7997  262.9557 C   0  0  0  0  0  0  0  0  0  0  0  0
   90.2205   47.4179  264.0292 C   0  0  0  0  0  0  0  0  0  0  0  0
   87.7197   46.6216  267.1428 S   0  0  0  0  0  0  0  0  0  0  0  0
   88.7306   45.3939  268.1466 C   0  0  0  0  0  0  0  0  0  0  0  0
   87.9054   47.9440  267.7429 O   0  0  0  0  0  0  0  0  0  0  0  0
   86.3737   46.0712  266.9700 O   0  0  0  0  0  0  0  0  0  0  0  0
   91.2068   50.3015  267.4054 H   0  0  0  0  0  0  0  0  0  0  0  0
   92.2660   46.4401  265.9283 H   0  0  0  0  0  0  0  0  0  0  0  0
   95.0815   51.6096  266.9279 H   0  0  0  0  0  0  0  0  0  0  0  0
   95.5833   53.7950  267.9754 H   0  0  0  0  0  0  0  0  0  0  0  0
   92.1285   50.7616  269.9369 H   0  0  0  0  0  0  0  0  0  0  0  0
   94.6278   55.6471  270.1168 H   0  0  0  0  0  0  0  0  0  0  0  0
   93.2038   55.1208  272.2646 H   0  0  0  0  0  0  0  0  0  0  0  0
   91.6078   53.3816  273.0503 H   0  0  0  0  0  0  0  0  0  0  0  0
   90.8214   52.4447  271.7349 H   0  0  0  0  0  0  0  0  0  0  0  0
   92.2066   51.7398  272.6354 H   0  0  0  0  0  0  0  0  0  0  0  0
   96.7707   45.9365  267.1266 H   0  0  0  0  0  0  0  0  0  0  0  0
   97.4566   48.0948  268.0483 H   0  0  0  0  0  0  0  0  0  0  0  0
   86.8946   45.5294  264.5836 H   0  0  0  0  0  0  0  0  0  0  0  0
   87.8848   45.6481  262.3251 H   0  0  0  0  0  0  0  0  0  0  0  0
   90.0213   46.8425  261.9693 H   0  0  0  0  0  0  0  0  0  0  0  0
   90.3420   48.4764  263.7555 H   0  0  0  0  0  0  0  0  0  0  0  0
   91.2103   46.9470  264.1210 H   0  0  0  0  0  0  0  0  0  0  0  0
   88.3132   45.3176  269.1615 H   0  0  0  0  0  0  0  0  0  0  0  0
   88.6965   44.4074  267.6611 H   0  0  0  0  0  0  0  0  0  0  0  0
   89.7737   45.7384  268.2042 H   0  0  0  0  0  0  0  0  0  0  0  0
  1  2  1  0  0  0  0
  1 22  2  3  0  0  0
  2  3  2  0  0  0  0
  2  7  1  0  0  0  0
  3  4  1  0  0  0  0
  4  5  2  0  0  0  0
  4  8  1  0  0  0  0
  5 21  1  0  0  0  0
  5  6  1  0  0  0  0
  6  7  2  0  0  0  0
  6 18  1  0  0  0  0
  8  9  2  0  0  0  0
  8 13  1  0  0  0  0
  9 10  1  0  0  0  0
 10 11  2  0  0  0  0
 11 12  1  0  0  0  0
 11 14  1  0  0  0  0
 12 13  2  0  0  0  0
 12 16  1  0  0  0  0
 14 15  2  0  0  0  0
 15 16  1  0  0  0  0
 16 17  1  0  0  0  0
 18 19  2  0  0  0  0
 19 20  1  0  0  0  0
 20 21  2  0  0  0  0
 22 23  1  0  0  0  0
 22 27  1  0  0  0  0
 23 24  2  0  0  0  0
 23 28  1  0  0  0  0
 24 25  1  0  0  0  0
 25 26  2  0  0  0  0
 26 27  1  0  0  0  0
 28 29  1  0  0  0  0
 28 30  2  0  0  0  0
 28 31  2  0  0  0  0
  3 32  1  0  0  0  0
  7 33  1  0  0  0  0
  9 34  1  0  0  0  0
 10 35  1  0  0  0  0
 13 36  1  0  0  0  0
 14 37  1  0  0  0  0
 15 38  1  0  0  0  0
 17 39  1  0  0  0  0
 17 40  1  0  0  0  0
 17 41  1  0  0  0  0
 19 42  1  0  0  0  0
 20 43  1  0  0  0  0
 24 44  1  0  0  0  0
 25 45  1  0  0  0  0
 26 46  1  0  0  0  0
 27 47  1  0  0  0  0
 27 48  1  0  0  0  0
 29 49  1  0  0  0  0
 29 50  1  0  0  0  0
 29 51  1  0  0  0  0
M  END
> <ID>
29

> <IC50[uM]>
0.085

$$$$
29
  -OEChem-05192314313D
 Structure written by MMmdl.
 51 55  0     1  0  0  0  0  0999 V2000
   90.2429   48.1499  266.3259 N   0  0  0  0  0  0  0  0  0  0  0  0
   91.5915   48.3463  266.6440 C   0  0  0  0  0  0  0  0  0  0  0  0
   91.9574   49.5395  267.2559 C   0  0  0  0  0  0  0  0  0  0  0  0
   93.2671   49.7858  267.6847 C   0  0  0  0  0  0  0  0  0  0  0  0
   94.2480   48.7609  267.5164 C   0  0  3  0  0  0  0  0  0  0  0  0
   93.8706   47.5246  266.9023 C   0  0  0  0  0  0  0  0  0  0  0  0
   92.5420   47.3500  266.4404 C   0  0  0  0  0  0  0  0  0  0  0  0
   93.5621   51.0725  268.3476 C   0  0  0  0  0  0  0  0  0  0  0  0
   94.5377   51.9183  267.8084 C   0  0  0  0  0  0  0  0  0  0  0  0
   94.8189   53.1557  268.3917 C   0  0  0  0  0  0  0  0  0  0  0  0
   94.1002   53.5562  269.5191 C   0  0  0  0  0  0  0  0  0  0  0  0
   93.1598   52.6544  270.0934 C   0  0  0  0  0  0  0  0  0  0  0  0
   92.8672   51.4224  269.5078 C   0  0  0  0  0  0  0  0  0  0  0  0
   94.1039   54.7259  270.3250 C   0  0  0  0  0  0  0  0  0  0  0  0
   93.3196   54.4659  271.4136 C   0  0  0  0  0  0  0  0  0  0  0  0
   92.6997   53.2477  271.2657 N   0  0  0  0  0  0  0  0  0  0  0  0
   91.7777   52.6682  272.2304 C   0  0  0  0  0  0  0  0  0  0  0  0
   94.7782   46.5125  266.7757 N   0  0  0  0  0  0  0  0  0  0  0  0
   96.0421   46.7292  267.2110 C   0  0  0  0  0  0  0  0  0  0  0  0
   96.4257   47.9449  267.7634 C   0  0  0  0  0  0  0  0  0  0  0  0
   95.5326   48.9464  267.9520 N   0  0  0  0  0  0  0  0  0  0  0  0
   89.6492   47.3982  265.3040 C   0  0  0  0  0  0  0  0  0  0  0  0
   88.4421   46.7054  265.5047 C   0  0  0  0  0  0  0  0  0  0  0  0
   87.8175   46.0683  264.4281 C   0  0  0  0  0  0  0  0  0  0  0  0
   88.3808   46.1261  263.1569 C   0  0  0  0  0  0  0  0  0  0  0  0
   89.5836   46.7997  262.9557 C   0  0  0  0  0  0  0  0  0  0  0  0
   90.2205   47.4179  264.0292 C   0  0  0  0  0  0  0  0  0  0  0  0
   87.7197   46.6216  267.1428 S   0  0  0  0  0  0  0  0  0  0  0  0
   88.7306   45.3939  268.1466 C   0  0  0  0  0  0  0  0  0  0  0  0
   87.9054   47.9440  267.7429 O   0  0  0  0  0  0  0  0  0  0  0  0
   86.3737   46.0712  266.9700 O   0  0  0  0  0  0  0  0  0  0  0  0
   91.2068   50.3015  267.4054 H   0  0  0  0  0  0  0  0  0  0  0  0
   94.5168   49.1730  266.5326 H   0  0  0  0  0  0  0  0  0  0  0  0
   92.2660   46.4401  265.9283 H   0  0  0  0  0  0  0  0  0  0  0  0
   95.0815   51.6096  266.9279 H   0  0  0  0  0  0  0  0  0  0  0  0
   95.5833   53.7950  267.9754 H   0  0  0  0  0  0  0  0  0  0  0  0
   92.1285   50.7616  269.9369 H   0  0  0  0  0  0  0  0  0  0  0  0
   94.6278   55.6471  270.1168 H   0  0  0  0  0  0  0  0  0  0  0  0
   93.2038   55.1208  272.2646 H   0  0  0  0  0  0  0  0  0  0  0  0
   91.6078   53.3816  273.0503 H   0  0  0  0  0  0  0  0  0  0  0  0
   90.8214   52.4447  271.7349 H   0  0  0  0  0  0  0  0  0  0  0  0
   92.2066   51.7398  272.6354 H   0  0  0  0  0  0  0  0  0  0  0  0
   96.7707   45.9365  267.1266 H   0  0  0  0  0  0  0  0  0  0  0  0
   97.4566   48.0948  268.0483 H   0  0  0  0  0  0  0  0  0  0  0  0
   86.8946   45.5294  264.5836 H   0  0  0  0  0  0  0  0  0  0  0  0
   87.8848   45.6481  262.3251 H   0  0  0  0  0  0  0  0  0  0  0  0
   90.0213   46.8425  261.9693 H   0  0  0  0  0  0  0  0  0  0  0  0
   91.1654   47.9175  263.8745 H   0  0  0  0  0  0  0  0  0  0  0  0
   88.3132   45.3176  269.1615 H   0  0  0  0  0  0  0  0  0  0  0  0
   88.6965   44.4074  267.6611 H   0  0  0  0  0  0  0  0  0  0  0  0
   89.7737   45.7384  268.2042 H   0  0  0  0  0  0  0  0  0  0  0  0
  1  2  2  0  0  0  0
  1 22  1  0  0  0  0
  2  3  1  0  0  0  0
  2  7  1  0  0  0  0
  3  4  2  0  0  0  0
  4  5  1  0  0  0  0
  4  8  1  0  0  0  0
  5 21  1  0  0  0  0
  5  6  1  0  0  0  0
  6  7  2  0  0  0  0
  6 18  1  0  0  0  0
  8  9  2  0  0  0  0
  8 13  1  0  0  0  0
  9 10  1  0  0  0  0
 10 11  2  0  0  0  0
 11 12  1  0  0  0  0
 11 14  1  0  0  0  0
 12 13  2  0  0  0  0
 12 16  1  0  0  0  0
 14 15  2  0  0  0  0
 15 16  1  0  0  0  0
 16 17  1  0  0  0  0
 18 19  2  0  0  0  0
 19 20  1  0  0  0  0
 20 21  2  0  0  0  0
 22 23  2  0  0  0  0
 22 27  1  0  0  0  0
 23 24  1  0  0  0  0
 23 28  1  0  0  0  0
 24 25  2  0  0  0  0
 25 26  1  0  0  0  0
 26 27  2  0  0  0  0
 28 29  1  0  0  0  0
 28 30  2  0  0  0  0
 28 31  2  0  0  0  0
  3 32  1  0  0  0  0
  5 33  1  0  0  0  0
  7 34  1  0  0  0  0
  9 35  1  0  0  0  0
 10 36  1  0  0  0  0
 13 37  1  0  0  0  0
 14 38  1  0  0  0  0
 15 39  1  0  0  0  0
 17 40  1  0  0  0  0
 17 41  1  0  0  0  0
 17 42  1  0  0  0  0
 19 43  1  0  0  0  0
 20 44  1  0  0  0  0
 24 45  1  0  0  0  0
 25 46  1  0  0  0  0
 26 47  1  0  0  0  0
 27 48  1  0  0  0  0
 29 49  1  0  0  0  0
 29 50  1  0  0  0  0
 29 51  1  0  0  0  0
M  END
> <ID>
29

> <IC50[uM]>
0.085

$$$$
29
  -OEChem-05192314313D
 Structure written by MMmdl.
 51 55  0     0  0  0  0  0  0999 V2000
   90.2429   48.1499  266.3259 N   0  0  0  0  0  0  0  0  0  0  0  0
   91.5915   48.3463  266.6440 C   0  0  0  0  0  0  0  0  0  0  0  0
   91.9574   49.5395  267.2559 C   0  0  0  0  0  0  0  0  0  0  0  0
   93.2671   49.7858  267.6847 C   0  0  0  0  0  0  0  0  0  0  0  0
   94.2480   48.7609  267.5164 C   0  0  0  0  0  0  0  0  0  0  0  0
   93.8706   47.5246  266.9023 C   0  0  0  0  0  0  0  0  0  0  0  0
   92.5420   47.3500  266.4404 C   0  0  0  0  0  0  0  0  0  0  0  0
   93.5621   51.0725  268.3476 C   0  0  0  0  0  0  0  0  0  0  0  0
   94.5377   51.9183  267.8084 C   0  0  0  0  0  0  0  0  0  0  0  0
   94.8189   53.1557  268.3917 C   0  0  0  0  0  0  0  0  0  0  0  0
   94.1002   53.5562  269.5191 C   0  0  0  0  0  0  0  0  0  0  0  0
   93.1598   52.6544  270.0934 C   0  0  0  0  0  0  0  0  0  0  0  0
   92.8672   51.4224  269.5078 C   0  0  0  0  0  0  0  0  0  0  0  0
   94.1039   54.7259  270.3250 C   0  0  0  0  0  0  0  0  0  0  0  0
   93.3196   54.4659  271.4136 C   0  0  0  0  0  0  0  0  0  0  0  0
   92.6997   53.2477  271.2657 N   0  0  0  0  0  0  0  0  0  0  0  0
   91.7777   52.6682  272.2304 C   0  0  0  0  0  0  0  0  0  0  0  0
   94.7782   46.5125  266.7757 N   0  0  0  0  0  0  0  0  0  0  0  0
   96.0421   46.7292  267.2110 C   0  0  0  0  0  0  0  0  0  0  0  0
   96.4257   47.9449  267.7634 C   0  0  0  0  0  0  0  0  0  0  0  0
   95.5326   48.9464  267.9520 N   0  0  0  0  0  0  0  0  0  0  0  0
   89.6492   47.3982  265.3040 C   0  0  0  0  0  0  0  0  0  0  0  0
   88.4421   46.7054  265.5047 C   0  0  0  0  0  0  0  0  0  0  0  0
   87.8175   46.0683  264.4281 C   0  0  0  0  0  0  0  0  0  0  0  0
   88.3808   46.1261  263.1569 C   0  0  0  0  0  0  0  0  0  0  0  0
   89.5836   46.7997  262.9557 C   0  0  0  0  0  0  0  0  0  0  0  0
   90.2205   47.4179  264.0292 C   0  0  0  0  0  0  0  0  0  0  0  0
   87.7197   46.6216  267.1428 S   0  0  0  0  0  0  0  0  0  0  0  0
   88.7306   45.3939  268.1466 C   0  0  0  0  0  0  0  0  0  0  0  0
   87.9054   47.9440  267.7429 O   0  0  0  0  0  0  0  0  0  0  0  0
   86.3737   46.0712  266.9700 O   0  0  0  0  0  0  0  0  0  0  0  0
   91.2068   50.3015  267.4054 H   0  0  0  0  0  0  0  0  0  0  0  0
   92.2660   46.4401  265.9283 H   0  0  0  0  0  0  0  0  0  0  0  0
   95.0815   51.6096  266.9279 H   0  0  0  0  0  0  0  0  0  0  0  0
   95.5833   53.7950  267.9754 H   0  0  0  0  0  0  0  0  0  0  0  0
   92.1285   50.7616  269.9369 H   0  0  0  0  0  0  0  0  0  0  0  0
   94.6278   55.6471  270.1168 H   0  0  0  0  0  0  0  0  0  0  0  0
   93.2038   55.1208  272.2646 H   0  0  0  0  0  0  0  0  0  0  0  0
   91.6078   53.3816  273.0503 H   0  0  0  0  0  0  0  0  0  0  0  0
   90.8214   52.4447  271.7349 H   0  0  0  0  0  0  0  0  0  0  0  0
   92.2066   51.7398  272.6354 H   0  0  0  0  0  0  0  0  0  0  0  0
   96.7707   45.9365  267.1266 H   0  0  0  0  0  0  0  0  0  0  0  0
   96.8510   47.7171  268.7520 H   0  0  0  0  0  0  0  0  0  0  0  0
   97.2129   48.3490  267.1099 H   0  0  0  0  0  0  0  0  0  0  0  0
   86.8946   45.5294  264.5836 H   0  0  0  0  0  0  0  0  0  0  0  0
   87.8848   45.6481  262.3251 H   0  0  0  0  0  0  0  0  0  0  0  0
   90.0213   46.8425  261.9693 H   0  0  0  0  0  0  0  0  0  0  0  0
   91.1654   47.9175  263.8745 H   0  0  0  0  0  0  0  0  0  0  0  0
   88.3132   45.3176  269.1615 H   0  0  0  0  0  0  0  0  0  0  0  0
   88.6965   44.4074  267.6611 H   0  0  0  0  0  0  0  0  0  0  0  0
   89.7737   45.7384  268.2042 H   0  0  0  0  0  0  0  0  0  0  0  0
  1  2  2  0  0  0  0
  1 22  1  0  0  0  0
  2  3  1  0  0  0  0
  2  7  1  0  0  0  0
  3  4  2  0  0  0  0
  4  5  1  0  0  0  0
  4  8  1  0  0  0  0
  5 21  2  0  0  0  0
  5  6  1  0  0  0  0
  6  7  2  0  0  0  0
  6 18  1  0  0  0  0
  8  9  2  0  0  0  0
  8 13  1  0  0  0  0
  9 10  1  0  0  0  0
 10 11  2  0  0  0  0
 11 12  1  0  0  0  0
 11 14  1  0  0  0  0
 12 13  2  0  0  0  0
 12 16  1  0  0  0  0
 14 15  2  0  0  0  0
 15 16  1  0  0  0  0
 16 17  1  0  0  0  0
 18 19  2  0  0  0  0
 19 20  1  0  0  0  0
 20 21  1  0  0  0  0
 22 23  2  0  0  0  0
 22 27  1  0  0  0  0
 23 24  1  0  0  0  0
 23 28  1  0  0  0  0
 24 25  2  0  0  0  0
 25 26  1  0  0  0  0
 26 27  2  0  0  0  0
 28 29  1  0  0  0  0
 28 30  2  0  0  0  0
 28 31  2  0  0  0  0
  3 32  1  0  0  0  0
  7 33  1  0  0  0  0
  9 34  1  0  0  0  0
 10 35  1  0  0  0  0
 13 36  1  0  0  0  0
 14 37  1  0  0  0  0
 15 38  1  0  0  0  0
 17 39  1  0  0  0  0
 17 40  1  0  0  0  0
 17 41  1  0  0  0  0
 19 42  1  0  0  0  0
 20 43  1  0  0  0  0
 20 44  1  0  0  0  0
 24 45  1  0  0  0  0
 25 46  1  0  0  0  0
 26 47  1  0  0  0  0
 27 48  1  0  0  0  0
 29 49  1  0  0  0  0
 29 50  1  0  0  0  0
 29 51  1  0  0  0  0
M  END
> <ID>
29

> <IC50[uM]>
0.085

$$$$
