54
  -OEChem-05192314313D
 Structure written by MMmdl.
 56 60  0     0  0  0  0  0  0999 V2000
   91.6126   48.3353  266.6703 C   0  0  0  0  0  0  0  0  0  0  0  0
   91.9733   49.5324  267.2808 C   0  0  0  0  0  0  0  0  0  0  0  0
   93.2894   49.7956  267.6797 C   0  0  0  0  0  0  0  0  0  0  0  0
   92.5692   47.3436  266.4692 C   0  0  0  0  0  0  0  0  0  0  0  0
   93.8975   47.5406  266.9051 C   0  0  0  0  0  0  0  0  0  0  0  0
   94.2749   48.7798  267.5080 C   0  0  0  0  0  0  0  0  0  0  0  0
   95.5631   48.9638  267.9368 N   0  0  0  0  0  0  0  0  0  0  0  0
   96.4503   47.9554  267.7480 C   0  0  0  0  0  0  0  0  0  0  0  0
   96.0641   46.7442  267.1890 C   0  0  0  0  0  0  0  0  0  0  0  0
   94.7980   46.5299  266.7611 N   0  0  0  0  0  0  0  0  0  0  0  0
   90.2745   48.1250  266.3159 N   0  0  0  0  0  0  0  0  0  0  0  0
   93.6036   51.0937  268.3225 C   0  0  0  0  0  0  0  0  0  0  0  0
   94.5719   51.9443  267.7904 C   0  0  0  0  0  0  0  0  0  0  0  0
   94.8678   53.1797  268.3665 C   0  0  0  0  0  0  0  0  0  0  0  0
   92.9154   51.4322  269.4867 C   0  0  0  0  0  0  0  0  0  0  0  0
   93.2133   52.6617  270.0729 C   0  0  0  0  0  0  0  0  0  0  0  0
   94.1579   53.5698  269.5118 C   0  0  0  0  0  0  0  0  0  0  0  0
   94.1541   54.7093  270.3309 C   0  0  0  0  0  0  0  0  0  0  0  0
   93.2816   54.4947  271.3567 C   0  0  0  0  0  0  0  0  0  0  0  0
   92.7302   53.2407  271.2278 N   0  0  0  0  0  0  0  0  0  0  0  0
   91.7687   52.6196  272.1281 C   0  0  0  0  0  0  0  0  0  0  0  0
   91.6695   53.3551  273.4819 C   0  0  0  0  0  0  0  0  0  0  0  0
   90.4002   52.4193  271.3856 C   0  0  0  0  0  0  0  0  0  0  0  0
   89.7164   47.3465  265.2896 C   0  0  0  0  0  0  0  0  0  0  0  0
   90.4207   47.1272  264.0986 C   0  0  0  0  0  0  0  0  0  0  0  0
   89.9174   46.4367  263.0451 N   0  0  0  0  0  0  0  0  0  0  0  0
   88.6611   45.9399  263.1652 C   0  0  0  0  0  0  0  0  0  0  0  0
   87.8879   46.0951  264.3148 C   0  0  0  0  0  0  0  0  0  0  0  0
   88.4239   46.8032  265.3975 C   0  0  0  0  0  0  0  0  0  0  0  0
   87.4822   46.8958  266.9257 S   0  0  0  0  0  0  0  0  0  0  0  0
   86.1360   46.3755  266.6687 O   0  0  0  0  0  0  0  0  0  0  0  0
   87.6578   48.2428  267.4781 O   0  0  0  0  0  0  0  0  0  0  0  0
   88.3798   45.6764  268.0436 C   0  0  0  0  0  0  0  0  0  0  0  0
   91.2147   50.2817  267.4523 H   0  0  0  0  0  0  0  0  0  0  0  0
   92.2944   46.4215  265.9786 H   0  0  0  0  0  0  0  0  0  0  0  0
   97.4806   48.0976  268.0390 H   0  0  0  0  0  0  0  0  0  0  0  0
   96.7928   45.9529  267.0932 H   0  0  0  0  0  0  0  0  0  0  0  0
   89.6090   48.6071  266.8857 H   0  0  0  0  0  0  0  0  0  0  0  0
   95.1091   51.6372  266.9053 H   0  0  0  0  0  0  0  0  0  0  0  0
   95.6256   53.8208  267.9408 H   0  0  0  0  0  0  0  0  0  0  0  0
   92.1805   50.7683  269.9175 H   0  0  0  0  0  0  0  0  0  0  0  0
   94.7411   55.6024  270.1756 H   0  0  0  0  0  0  0  0  0  0  0  0
   93.0587   55.1979  272.1455 H   0  0  0  0  0  0  0  0  0  0  0  0
   92.1402   51.6092  272.3542 H   0  0  0  0  0  0  0  0  0  0  0  0
   90.9328   52.8479  274.1223 H   0  0  0  0  0  0  0  0  0  0  0  0
   92.6521   53.3470  273.9763 H   0  0  0  0  0  0  0  0  0  0  0  0
   91.3531   54.3948  273.3119 H   0  0  0  0  0  0  0  0  0  0  0  0
   89.6770   51.9501  272.0688 H   0  0  0  0  0  0  0  0  0  0  0  0
   90.0145   53.3960  271.0580 H   0  0  0  0  0  0  0  0  0  0  0  0
   90.5500   51.7716  270.5092 H   0  0  0  0  0  0  0  0  0  0  0  0
   91.4192   47.5300  264.0146 H   0  0  0  0  0  0  0  0  0  0  0  0
   88.2399   45.3986  262.3310 H   0  0  0  0  0  0  0  0  0  0  0  0
   86.8937   45.6769  264.3694 H   0  0  0  0  0  0  0  0  0  0  0  0
   87.8853   45.6461  269.0257 H   0  0  0  0  0  0  0  0  0  0  0  0
   88.3540   44.6750  267.5891 H   0  0  0  0  0  0  0  0  0  0  0  0
   89.4251   45.9952  268.1692 H   0  0  0  0  0  0  0  0  0  0  0  0
  1  2  2  0  0  0  0
  1  4  1  0  0  0  0
  1 11  1  0  0  0  0
  2  3  1  0  0  0  0
  3  6  2  0  0  0  0
  3 12  1  0  0  0  0
  4  5  2  0  0  0  0
  5  6  1  0  0  0  0
  5 10  1  0  0  0  0
  6  7  1  0  0  0  0
  7  8  2  0  0  0  0
  8  9  1  0  0  0  0
  9 10  2  0  0  0  0
 11 24  1  0  0  0  0
 12 13  2  0  0  0  0
 12 15  1  0  0  0  0
 13 14  1  0  0  0  0
 14 17  2  0  0  0  0
 15 16  2  0  0  0  0
 16 17  1  0  0  0  0
 16 20  1  0  0  0  0
 17 18  1  0  0  0  0
 18 19  2  0  0  0  0
 19 20  1  0  0  0  0
 20 21  1  0  0  0  0
 21 22  1  0  0  0  0
 21 23  1  0  0  0  0
 24 25  2  0  0  0  0
 24 29  1  0  0  0  0
 25 26  1  0  0  0  0
 26 27  2  0  0  0  0
 27 28  1  0  0  0  0
 28 29  2  0  0  0  0
 29 30  1  0  0  0  0
 30 31  2  0  0  0  0
 30 32  2  0  0  0  0
 30 33  1  0  0  0  0
  2 34  1  0  0  0  0
  4 35  1  0  0  0  0
  8 36  1  0  0  0  0
  9 37  1  0  0  0  0
 11 38  1  0  0  0  0
 13 39  1  0  0  0  0
 14 40  1  0  0  0  0
 15 41  1  0  0  0  0
 18 42  1  0  0  0  0
 19 43  1  0  0  0  0
 21 44  1  0  0  0  0
 22 45  1  0  0  0  0
 22 46  1  0  0  0  0
 22 47  1  0  0  0  0
 23 48  1  0  0  0  0
 23 49  1  0  0  0  0
 23 50  1  0  0  0  0
 25 51  1  0  0  0  0
 27 52  1  0  0  0  0
 28 53  1  0  0  0  0
 33 54  1  0  0  0  0
 33 55  1  0  0  0  0
 33 56  1  0  0  0  0
M  END
> <ID>
54

> <IC50[uM]>
1.01

$$$$
54
  -OEChem-05192314313D
 Structure written by MMmdl.
 56 60  0     0  0  0  0  0  0999 V2000
   91.6126   48.3353  266.6703 C   0  0  0  0  0  0  0  0  0  0  0  0
   91.9733   49.5324  267.2808 C   0  0  0  0  0  0  0  0  0  0  0  0
   93.2894   49.7956  267.6797 C   0  0  0  0  0  0  0  0  0  0  0  0
   92.5692   47.3436  266.4692 C   0  0  0  0  0  0  0  0  0  0  0  0
   93.8975   47.5406  266.9051 C   0  0  0  0  0  0  0  0  0  0  0  0
   94.2749   48.7798  267.5080 C   0  0  0  0  0  0  0  0  0  0  0  0
   95.5631   48.9638  267.9368 N   0  0  0  0  0  0  0  0  0  0  0  0
   96.4503   47.9554  267.7480 C   0  0  0  0  0  0  0  0  0  0  0  0
   96.0641   46.7442  267.1890 C   0  0  0  0  0  0  0  0  0  0  0  0
   94.7980   46.5299  266.7611 N   0  0  0  0  0  0  0  0  0  0  0  0
   90.2745   48.1250  266.3159 N   0  0  0  0  0  0  0  0  0  0  0  0
   93.6036   51.0937  268.3225 C   0  0  0  0  0  0  0  0  0  0  0  0
   94.5719   51.9443  267.7904 C   0  0  0  0  0  0  0  0  0  0  0  0
   94.8678   53.1797  268.3665 C   0  0  0  0  0  0  0  0  0  0  0  0
   92.9154   51.4322  269.4867 C   0  0  0  0  0  0  0  0  0  0  0  0
   93.2133   52.6617  270.0729 C   0  0  0  0  0  0  0  0  0  0  0  0
   94.1579   53.5698  269.5118 C   0  0  0  0  0  0  0  0  0  0  0  0
   94.1541   54.7093  270.3309 C   0  0  0  0  0  0  0  0  0  0  0  0
   93.2816   54.4947  271.3567 C   0  0  0  0  0  0  0  0  0  0  0  0
   92.7302   53.2407  271.2278 N   0  0  0  0  0  0  0  0  0  0  0  0
   91.7687   52.6196  272.1281 C   0  0  0  0  0  0  0  0  0  0  0  0
   91.6695   53.3551  273.4819 C   0  0  0  0  0  0  0  0  0  0  0  0
   90.4002   52.4193  271.3856 C   0  0  0  0  0  0  0  0  0  0  0  0
   89.7164   47.3465  265.2896 C   0  0  0  0  0  0  0  0  0  0  0  0
   90.4207   47.1272  264.0986 C   0  0  0  0  0  0  0  0  0  0  0  0
   89.9174   46.4367  263.0451 N   0  0  0  0  0  0  0  0  0  0  0  0
   88.6611   45.9399  263.1652 C   0  0  0  0  0  0  0  0  0  0  0  0
   87.8879   46.0951  264.3148 C   0  0  0  0  0  0  0  0  0  0  0  0
   88.4239   46.8032  265.3975 C   0  0  0  0  0  0  0  0  0  0  0  0
   87.4822   46.8958  266.9257 S   0  0  0  0  0  0  0  0  0  0  0  0
   86.1360   46.3755  266.6687 O   0  0  0  0  0  0  0  0  0  0  0  0
   87.6578   48.2428  267.4781 O   0  0  0  0  0  0  0  0  0  0  0  0
   88.3798   45.6764  268.0436 C   0  0  0  0  0  0  0  0  0  0  0  0
   91.2147   50.2817  267.4523 H   0  0  0  0  0  0  0  0  0  0  0  0
   92.2944   46.4215  265.9786 H   0  0  0  0  0  0  0  0  0  0  0  0
   97.4806   48.0976  268.0390 H   0  0  0  0  0  0  0  0  0  0  0  0
   96.7928   45.9529  267.0932 H   0  0  0  0  0  0  0  0  0  0  0  0
   94.5325   45.6568  266.3522 H   0  0  0  0  0  0  0  0  0  0  0  0
   95.1091   51.6372  266.9053 H   0  0  0  0  0  0  0  0  0  0  0  0
   95.6256   53.8208  267.9408 H   0  0  0  0  0  0  0  0  0  0  0  0
   92.1805   50.7683  269.9175 H   0  0  0  0  0  0  0  0  0  0  0  0
   94.7411   55.6024  270.1756 H   0  0  0  0  0  0  0  0  0  0  0  0
   93.0587   55.1979  272.1455 H   0  0  0  0  0  0  0  0  0  0  0  0
   92.1402   51.6092  272.3542 H   0  0  0  0  0  0  0  0  0  0  0  0
   90.9328   52.8479  274.1223 H   0  0  0  0  0  0  0  0  0  0  0  0
   92.6521   53.3470  273.9763 H   0  0  0  0  0  0  0  0  0  0  0  0
   91.3531   54.3948  273.3119 H   0  0  0  0  0  0  0  0  0  0  0  0
   89.6770   51.9501  272.0688 H   0  0  0  0  0  0  0  0  0  0  0  0
   90.0145   53.3960  271.0580 H   0  0  0  0  0  0  0  0  0  0  0  0
   90.5500   51.7716  270.5092 H   0  0  0  0  0  0  0  0  0  0  0  0
   91.4192   47.5300  264.0146 H   0  0  0  0  0  0  0  0  0  0  0  0
   88.2399   45.3986  262.3310 H   0  0  0  0  0  0  0  0  0  0  0  0
   86.8937   45.6769  264.3694 H   0  0  0  0  0  0  0  0  0  0  0  0
   87.8853   45.6461  269.0257 H   0  0  0  0  0  0  0  0  0  0  0  0
   88.3540   44.6750  267.5891 H   0  0  0  0  0  0  0  0  0  0  0  0
   89.4251   45.9952  268.1692 H   0  0  0  0  0  0  0  0  0  0  0  0
  1  2  1  0  0  0  0
  1  4  1  0  0  0  0
  1 11  2  0  0  0  0
  2  3  2  0  0  0  0
  3  6  1  0  0  0  0
  3 12  1  0  0  0  0
  4  5  2  0  0  0  0
  5  6  1  0  0  0  0
  5 10  1  0  0  0  0
  6  7  2  0  0  0  0
  7  8  1  0  0  0  0
  8  9  2  0  0  0  0
  9 10  1  0  0  0  0
 11 24  1  0  0  0  0
 12 13  2  0  0  0  0
 12 15  1  0  0  0  0
 13 14  1  0  0  0  0
 14 17  2  0  0  0  0
 15 16  2  0  0  0  0
 16 17  1  0  0  0  0
 16 20  1  0  0  0  0
 17 18  1  0  0  0  0
 18 19  2  0  0  0  0
 19 20  1  0  0  0  0
 20 21  1  0  0  0  0
 21 22  1  0  0  0  0
 21 23  1  0  0  0  0
 24 25  2  0  0  0  0
 24 29  1  0  0  0  0
 25 26  1  0  0  0  0
 26 27  2  0  0  0  0
 27 28  1  0  0  0  0
 28 29  2  0  0  0  0
 29 30  1  0  0  0  0
 30 31  2  0  0  0  0
 30 32  2  0  0  0  0
 30 33  1  0  0  0  0
  2 34  1  0  0  0  0
  4 35  1  0  0  0  0
  8 36  1  0  0  0  0
  9 37  1  0  0  0  0
 10 38  1  0  0  0  0
 13 39  1  0  0  0  0
 14 40  1  0  0  0  0
 15 41  1  0  0  0  0
 18 42  1  0  0  0  0
 19 43  1  0  0  0  0
 21 44  1  0  0  0  0
 22 45  1  0  0  0  0
 22 46  1  0  0  0  0
 22 47  1  0  0  0  0
 23 48  1  0  0  0  0
 23 49  1  0  0  0  0
 23 50  1  0  0  0  0
 25 51  1  0  0  0  0
 27 52  1  0  0  0  0
 28 53  1  0  0  0  0
 33 54  1  0  0  0  0
 33 55  1  0  0  0  0
 33 56  1  0  0  0  0
M  END
> <ID>
54

> <IC50[uM]>
1.01

$$$$
54
  -OEChem-05192314313D
 Structure written by MMmdl.
 56 60  0     0  0  0  0  0  0999 V2000
   91.6126   48.3353  266.6703 C   0  0  0  0  0  0  0  0  0  0  0  0
   91.9733   49.5324  267.2808 C   0  0  0  0  0  0  0  0  0  0  0  0
   93.2894   49.7956  267.6797 C   0  0  0  0  0  0  0  0  0  0  0  0
   92.5692   47.3436  266.4692 C   0  0  0  0  0  0  0  0  0  0  0  0
   93.8975   47.5406  266.9051 C   0  0  0  0  0  0  0  0  0  0  0  0
   94.2749   48.7798  267.5080 C   0  0  0  0  0  0  0  0  0  0  0  0
   95.5631   48.9638  267.9368 N   0  0  0  0  0  0  0  0  0  0  0  0
   96.4503   47.9554  267.7480 C   0  0  0  0  0  0  0  0  0  0  0  0
   96.0641   46.7442  267.1890 C   0  0  0  0  0  0  0  0  0  0  0  0
   94.7980   46.5299  266.7611 N   0  0  0  0  0  0  0  0  0  0  0  0
   90.2745   48.1250  266.3159 N   0  0  0  0  0  0  0  0  0  0  0  0
   93.6036   51.0937  268.3225 C   0  0  0  0  0  0  0  0  0  0  0  0
   94.5719   51.9443  267.7904 C   0  0  0  0  0  0  0  0  0  0  0  0
   94.8678   53.1797  268.3665 C   0  0  0  0  0  0  0  0  0  0  0  0
   92.9154   51.4322  269.4867 C   0  0  0  0  0  0  0  0  0  0  0  0
   93.2133   52.6617  270.0729 C   0  0  0  0  0  0  0  0  0  0  0  0
   94.1579   53.5698  269.5118 C   0  0  0  0  0  0  0  0  0  0  0  0
   94.1541   54.7093  270.3309 C   0  0  0  0  0  0  0  0  0  0  0  0
   93.2816   54.4947  271.3567 C   0  0  0  0  0  0  0  0  0  0  0  0
   92.7302   53.2407  271.2278 N   0  0  0  0  0  0  0  0  0  0  0  0
   91.7687   52.6196  272.1281 C   0  0  0  0  0  0  0  0  0  0  0  0
   91.6695   53.3551  273.4819 C   0  0  0  0  0  0  0  0  0  0  0  0
   90.4002   52.4193  271.3856 C   0  0  0  0  0  0  0  0  0  0  0  0
   89.7164   47.3465  265.2896 C   0  0  0  0  0  0  0  0  0  0  0  0
   90.4207   47.1272  264.0986 C   0  0  0  0  0  0  0  0  0  0  0  0
   89.9174   46.4367  263.0451 N   0  0  0  0  0  0  0  0  0  0  0  0
   88.6611   45.9399  263.1652 C   0  0  0  0  0  0  0  0  0  0  0  0
   87.8879   46.0951  264.3148 C   0  0  0  0  0  0  0  0  0  0  0  0
   88.4239   46.8032  265.3975 C   0  0  0  0  0  0  0  0  0  0  0  0
   87.4822   46.8958  266.9257 S   0  0  0  0  0  0  0  0  0  0  0  0
   86.1360   46.3755  266.6687 O   0  0  0  0  0  0  0  0  0  0  0  0
   87.6578   48.2428  267.4781 O   0  0  0  0  0  0  0  0  0  0  0  0
   88.3798   45.6764  268.0436 C   0  0  0  0  0  0  0  0  0  0  0  0
   91.2147   50.2817  267.4523 H   0  0  0  0  0  0  0  0  0  0  0  0
   92.2001   46.4399  266.9763 H   0  0  0  0  0  0  0  0  0  0  0  0
   92.6151   47.1628  265.3851 H   0  0  0  0  0  0  0  0  0  0  0  0
   97.4806   48.0976  268.0390 H   0  0  0  0  0  0  0  0  0  0  0  0
   96.7928   45.9529  267.0932 H   0  0  0  0  0  0  0  0  0  0  0  0
   95.1091   51.6372  266.9053 H   0  0  0  0  0  0  0  0  0  0  0  0
   95.6256   53.8208  267.9408 H   0  0  0  0  0  0  0  0  0  0  0  0
   92.1805   50.7683  269.9175 H   0  0  0  0  0  0  0  0  0  0  0  0
   94.7411   55.6024  270.1756 H   0  0  0  0  0  0  0  0  0  0  0  0
   93.0587   55.1979  272.1455 H   0  0  0  0  0  0  0  0  0  0  0  0
   92.1402   51.6092  272.3542 H   0  0  0  0  0  0  0  0  0  0  0  0
   90.9328   52.8479  274.1223 H   0  0  0  0  0  0  0  0  0  0  0  0
   92.6521   53.3470  273.9763 H   0  0  0  0  0  0  0  0  0  0  0  0
   91.3531   54.3948  273.3119 H   0  0  0  0  0  0  0  0  0  0  0  0
   89.6770   51.9501  272.0688 H   0  0  0  0  0  0  0  0  0  0  0  0
   90.0145   53.3960  271.0580 H   0  0  0  0  0  0  0  0  0  0  0  0
   90.5500   51.7716  270.5092 H   0  0  0  0  0  0  0  0  0  0  0  0
   91.4192   47.5300  264.0146 H   0  0  0  0  0  0  0  0  0  0  0  0
   88.2399   45.3986  262.3310 H   0  0  0  0  0  0  0  0  0  0  0  0
   86.8937   45.6769  264.3694 H   0  0  0  0  0  0  0  0  0  0  0  0
   87.8853   45.6461  269.0257 H   0  0  0  0  0  0  0  0  0  0  0  0
   88.3540   44.6750  267.5891 H   0  0  0  0  0  0  0  0  0  0  0  0
   89.4251   45.9952  268.1692 H   0  0  0  0  0  0  0  0  0  0  0  0
  1  2  1  0  0  0  0
  1  4  1  0  0  0  0
  1 11  2  0  0  0  0
  2  3  2  0  0  0  0
  3  6  1  0  0  0  0
  3 12  1  0  0  0  0
  4  5  1  0  0  0  0
  5  6  2  0  0  0  0
  5 10  1  0  0  0  0
  6  7  1  0  0  0  0
  7  8  2  0  0  0  0
  8  9  1  0  0  0  0
  9 10  2  0  0  0  0
 11 24  1  0  0  0  0
 12 13  2  0  0  0  0
 12 15  1  0  0  0  0
 13 14  1  0  0  0  0
 14 17  2  0  0  0  0
 15 16  2  0  0  0  0
 16 17  1  0  0  0  0
 16 20  1  0  0  0  0
 17 18  1  0  0  0  0
 18 19  2  0  0  0  0
 19 20  1  0  0  0  0
 20 21  1  0  0  0  0
 21 22  1  0  0  0  0
 21 23  1  0  0  0  0
 24 25  2  0  0  0  0
 24 29  1  0  0  0  0
 25 26  1  0  0  0  0
 26 27  2  0  0  0  0
 27 28  1  0  0  0  0
 28 29  2  0  0  0  0
 29 30  1  0  0  0  0
 30 31  2  0  0  0  0
 30 32  2  0  0  0  0
 30 33  1  0  0  0  0
  2 34  1  0  0  0  0
  4 35  1  0  0  0  0
  4 36  1  0  0  0  0
  8 37  1  0  0  0  0
  9 38  1  0  0  0  0
 13 39  1  0  0  0  0
 14 40  1  0  0  0  0
 15 41  1  0  0  0  0
 18 42  1  0  0  0  0
 19 43  1  0  0  0  0
 21 44  1  0  0  0  0
 22 45  1  0  0  0  0
 22 46  1  0  0  0  0
 22 47  1  0  0  0  0
 23 48  1  0  0  0  0
 23 49  1  0  0  0  0
 23 50  1  0  0  0  0
 25 51  1  0  0  0  0
 27 52  1  0  0  0  0
 28 53  1  0  0  0  0
 33 54  1  0  0  0  0
 33 55  1  0  0  0  0
 33 56  1  0  0  0  0
M  END
> <ID>
54

> <IC50[uM]>
1.01

$$$$
54
  -OEChem-05192314313D
 Structure written by MMmdl.
 56 60  0     0  0  0  0  0  0999 V2000
   91.6126   48.3353  266.6703 C   0  0  0  0  0  0  0  0  0  0  0  0
   91.9733   49.5324  267.2808 C   0  0  0  0  0  0  0  0  0  0  0  0
   93.2894   49.7956  267.6797 C   0  0  0  0  0  0  0  0  0  0  0  0
   92.5692   47.3436  266.4692 C   0  0  0  0  0  0  0  0  0  0  0  0
   93.8975   47.5406  266.9051 C   0  0  0  0  0  0  0  0  0  0  0  0
   94.2749   48.7798  267.5080 C   0  0  0  0  0  0  0  0  0  0  0  0
   95.5631   48.9638  267.9368 N   0  0  0  0  0  0  0  0  0  0  0  0
   96.4503   47.9554  267.7480 C   0  0  0  0  0  0  0  0  0  0  0  0
   96.0641   46.7442  267.1890 C   0  0  0  0  0  0  0  0  0  0  0  0
   94.7980   46.5299  266.7611 N   0  0  0  0  0  0  0  0  0  0  0  0
   90.2745   48.1250  266.3159 N   0  0  0  0  0  0  0  0  0  0  0  0
   93.6036   51.0937  268.3225 C   0  0  0  0  0  0  0  0  0  0  0  0
   94.5719   51.9443  267.7904 C   0  0  0  0  0  0  0  0  0  0  0  0
   94.8678   53.1797  268.3665 C   0  0  0  0  0  0  0  0  0  0  0  0
   92.9154   51.4322  269.4867 C   0  0  0  0  0  0  0  0  0  0  0  0
   93.2133   52.6617  270.0729 C   0  0  0  0  0  0  0  0  0  0  0  0
   94.1579   53.5698  269.5118 C   0  0  0  0  0  0  0  0  0  0  0  0
   94.1541   54.7093  270.3309 C   0  0  0  0  0  0  0  0  0  0  0  0
   93.2816   54.4947  271.3567 C   0  0  0  0  0  0  0  0  0  0  0  0
   92.7302   53.2407  271.2278 N   0  0  0  0  0  0  0  0  0  0  0  0
   91.7687   52.6196  272.1281 C   0  0  0  0  0  0  0  0  0  0  0  0
   91.6695   53.3551  273.4819 C   0  0  0  0  0  0  0  0  0  0  0  0
   90.4002   52.4193  271.3856 C   0  0  0  0  0  0  0  0  0  0  0  0
   89.7164   47.3465  265.2896 C   0  0  0  0  0  0  0  0  0  0  0  0
   90.4207   47.1272  264.0986 C   0  0  0  0  0  0  0  0  0  0  0  0
   89.9174   46.4367  263.0451 N   0  0  0  0  0  0  0  0  0  0  0  0
   88.6611   45.9399  263.1652 C   0  0  0  0  0  0  0  0  0  0  0  0
   87.8879   46.0951  264.3148 C   0  0  0  0  0  0  0  0  0  0  0  0
   88.4239   46.8032  265.3975 C   0  0  0  0  0  0  0  0  0  0  0  0
   87.4822   46.8958  266.9257 S   0  0  0  0  0  0  0  0  0  0  0  0
   86.1360   46.3755  266.6687 O   0  0  0  0  0  0  0  0  0  0  0  0
   87.6578   48.2428  267.4781 O   0  0  0  0  0  0  0  0  0  0  0  0
   88.3798   45.6764  268.0436 C   0  0  0  0  0  0  0  0  0  0  0  0
   91.6995   50.3318  266.5765 H   0  0  0  0  0  0  0  0  0  0  0  0
   91.3549   49.6143  268.1868 H   0  0  0  0  0  0  0  0  0  0  0  0
   92.2944   46.4215  265.9786 H   0  0  0  0  0  0  0  0  0  0  0  0
   97.4806   48.0976  268.0390 H   0  0  0  0  0  0  0  0  0  0  0  0
   96.7928   45.9529  267.0932 H   0  0  0  0  0  0  0  0  0  0  0  0
   95.1091   51.6372  266.9053 H   0  0  0  0  0  0  0  0  0  0  0  0
   95.6256   53.8208  267.9408 H   0  0  0  0  0  0  0  0  0  0  0  0
   92.1805   50.7683  269.9175 H   0  0  0  0  0  0  0  0  0  0  0  0
   94.7411   55.6024  270.1756 H   0  0  0  0  0  0  0  0  0  0  0  0
   93.0587   55.1979  272.1455 H   0  0  0  0  0  0  0  0  0  0  0  0
   92.1402   51.6092  272.3542 H   0  0  0  0  0  0  0  0  0  0  0  0
   90.9328   52.8479  274.1223 H   0  0  0  0  0  0  0  0  0  0  0  0
   92.6521   53.3470  273.9763 H   0  0  0  0  0  0  0  0  0  0  0  0
   91.3531   54.3948  273.3119 H   0  0  0  0  0  0  0  0  0  0  0  0
   89.6770   51.9501  272.0688 H   0  0  0  0  0  0  0  0  0  0  0  0
   90.0145   53.3960  271.0580 H   0  0  0  0  0  0  0  0  0  0  0  0
   90.5500   51.7716  270.5092 H   0  0  0  0  0  0  0  0  0  0  0  0
   91.4192   47.5300  264.0146 H   0  0  0  0  0  0  0  0  0  0  0  0
   88.2399   45.3986  262.3310 H   0  0  0  0  0  0  0  0  0  0  0  0
   86.8937   45.6769  264.3694 H   0  0  0  0  0  0  0  0  0  0  0  0
   87.8853   45.6461  269.0257 H   0  0  0  0  0  0  0  0  0  0  0  0
   88.3540   44.6750  267.5891 H   0  0  0  0  0  0  0  0  0  0  0  0
   89.4251   45.9952  268.1692 H   0  0  0  0  0  0  0  0  0  0  0  0
  1  2  1  0  0  0  0
  1  4  1  0  0  0  0
  1 11  2  0  0  0  0
  2  3  1  0  0  0  0
  3  6  2  0  0  0  0
  3 12  1  0  0  0  0
  4  5  2  0  0  0  0
  5  6  1  0  0  0  0
  5 10  1  0  0  0  0
  6  7  1  0  0  0  0
  7  8  2  0  0  0  0
  8  9  1  0  0  0  0
  9 10  2  0  0  0  0
 11 24  1  0  0  0  0
 12 13  2  0  0  0  0
 12 15  1  0  0  0  0
 13 14  1  0  0  0  0
 14 17  2  0  0  0  0
 15 16  2  0  0  0  0
 16 17  1  0  0  0  0
 16 20  1  0  0  0  0
 17 18  1  0  0  0  0
 18 19  2  0  0  0  0
 19 20  1  0  0  0  0
 20 21  1  0  0  0  0
 21 22  1  0  0  0  0
 21 23  1  0  0  0  0
 24 25  2  0  0  0  0
 24 29  1  0  0  0  0
 25 26  1  0  0  0  0
 26 27  2  0  0  0  0
 27 28  1  0  0  0  0
 28 29  2  0  0  0  0
 29 30  1  0  0  0  0
 30 31  2  0  0  0  0
 30 32  2  0  0  0  0
 30 33  1  0  0  0  0
  2 34  1  0  0  0  0
  2 35  1  0  0  0  0
  4 36  1  0  0  0  0
  8 37  1  0  0  0  0
  9 38  1  0  0  0  0
 13 39  1  0  0  0  0
 14 40  1  0  0  0  0
 15 41  1  0  0  0  0
 18 42  1  0  0  0  0
 19 43  1  0  0  0  0
 21 44  1  0  0  0  0
 22 45  1  0  0  0  0
 22 46  1  0  0  0  0
 22 47  1  0  0  0  0
 23 48  1  0  0  0  0
 23 49  1  0  0  0  0
 23 50  1  0  0  0  0
 25 51  1  0  0  0  0
 27 52  1  0  0  0  0
 28 53  1  0  0  0  0
 33 54  1  0  0  0  0
 33 55  1  0  0  0  0
 33 56  1  0  0  0  0
M  END
> <ID>
54

> <IC50[uM]>
1.01

$$$$
54
  -OEChem-05192314313D
 Structure written by MMmdl.
 56 60  0     1  0  0  0  0  0999 V2000
   91.6126   48.3353  266.6703 C   0  0  0  0  0  0  0  0  0  0  0  0
   91.9733   49.5324  267.2808 C   0  0  0  0  0  0  0  0  0  0  0  0
   93.2894   49.7956  267.6797 C   0  0  0  0  0  0  0  0  0  0  0  0
   92.5692   47.3436  266.4692 C   0  0  0  0  0  0  0  0  0  0  0  0
   93.8975   47.5406  266.9051 C   0  0  0  0  0  0  0  0  0  0  0  0
   94.2749   48.7798  267.5080 C   0  0  0  0  0  0  0  0  0  0  0  0
   95.5631   48.9638  267.9368 N   0  0  0  0  0  0  0  0  0  0  0  0
   96.4503   47.9554  267.7480 C   0  0  0  0  0  0  0  0  0  0  0  0
   96.0641   46.7442  267.1890 C   0  0  0  0  0  0  0  0  0  0  0  0
   94.7980   46.5299  266.7611 N   0  0  0  0  0  0  0  0  0  0  0  0
   90.2745   48.1250  266.3159 N   0  0  0  0  0  0  0  0  0  0  0  0
   93.6036   51.0937  268.3225 C   0  0  0  0  0  0  0  0  0  0  0  0
   94.5719   51.9443  267.7904 C   0  0  0  0  0  0  0  0  0  0  0  0
   94.8678   53.1797  268.3665 C   0  0  0  0  0  0  0  0  0  0  0  0
   92.9154   51.4322  269.4867 C   0  0  0  0  0  0  0  0  0  0  0  0
   93.2133   52.6617  270.0729 C   0  0  0  0  0  0  0  0  0  0  0  0
   94.1579   53.5698  269.5118 C   0  0  0  0  0  0  0  0  0  0  0  0
   94.1541   54.7093  270.3309 C   0  0  0  0  0  0  0  0  0  0  0  0
   93.2816   54.4947  271.3567 C   0  0  0  0  0  0  0  0  0  0  0  0
   92.7302   53.2407  271.2278 N   0  0  0  0  0  0  0  0  0  0  0  0
   91.7687   52.6196  272.1281 C   0  0  0  0  0  0  0  0  0  0  0  0
   91.6695   53.3551  273.4819 C   0  0  0  0  0  0  0  0  0  0  0  0
   90.4002   52.4193  271.3856 C   0  0  0  0  0  0  0  0  0  0  0  0
   89.7164   47.3465  265.2896 C   0  0  0  0  0  0  0  0  0  0  0  0
   90.4207   47.1272  264.0986 C   0  0  0  0  0  0  0  0  0  0  0  0
   89.9174   46.4367  263.0451 N   0  0  0  0  0  0  0  0  0  0  0  0
   88.6611   45.9399  263.1652 C   0  0  0  0  0  0  0  0  0  0  0  0
   87.8879   46.0951  264.3148 C   0  0  0  0  0  0  0  0  0  0  0  0
   88.4239   46.8032  265.3975 C   0  0  3  0  0  0  0  0  0  0  0  0
   87.4822   46.8958  266.9257 S   0  0  0  0  0  0  0  0  0  0  0  0
   86.1360   46.3755  266.6687 O   0  0  0  0  0  0  0  0  0  0  0  0
   87.6578   48.2428  267.4781 O   0  0  0  0  0  0  0  0  0  0  0  0
   88.3798   45.6764  268.0436 C   0  0  0  0  0  0  0  0  0  0  0  0
   91.2147   50.2817  267.4523 H   0  0  0  0  0  0  0  0  0  0  0  0
   92.2944   46.4215  265.9786 H   0  0  0  0  0  0  0  0  0  0  0  0
   97.4806   48.0976  268.0390 H   0  0  0  0  0  0  0  0  0  0  0  0
   96.7928   45.9529  267.0932 H   0  0  0  0  0  0  0  0  0  0  0  0
   95.1091   51.6372  266.9053 H   0  0  0  0  0  0  0  0  0  0  0  0
   95.6256   53.8208  267.9408 H   0  0  0  0  0  0  0  0  0  0  0  0
   92.1805   50.7683  269.9175 H   0  0  0  0  0  0  0  0  0  0  0  0
   94.7411   55.6024  270.1756 H   0  0  0  0  0  0  0  0  0  0  0  0
   93.0587   55.1979  272.1455 H   0  0  0  0  0  0  0  0  0  0  0  0
   92.1402   51.6092  272.3542 H   0  0  0  0  0  0  0  0  0  0  0  0
   90.9328   52.8479  274.1223 H   0  0  0  0  0  0  0  0  0  0  0  0
   92.6521   53.3470  273.9763 H   0  0  0  0  0  0  0  0  0  0  0  0
   91.3531   54.3948  273.3119 H   0  0  0  0  0  0  0  0  0  0  0  0
   89.6770   51.9501  272.0688 H   0  0  0  0  0  0  0  0  0  0  0  0
   90.0145   53.3960  271.0580 H   0  0  0  0  0  0  0  0  0  0  0  0
   90.5500   51.7716  270.5092 H   0  0  0  0  0  0  0  0  0  0  0  0
   91.4192   47.5300  264.0146 H   0  0  0  0  0  0  0  0  0  0  0  0
   88.2399   45.3986  262.3310 H   0  0  0  0  0  0  0  0  0  0  0  0
   86.8937   45.6769  264.3694 H   0  0  0  0  0  0  0  0  0  0  0  0
   87.9730   47.7406  265.0399 H   0  0  0  0  0  0  0  0  0  0  0  0
   87.8853   45.6461  269.0257 H   0  0  0  0  0  0  0  0  0  0  0  0
   88.3540   44.6750  267.5891 H   0  0  0  0  0  0  0  0  0  0  0  0
   89.4251   45.9952  268.1692 H   0  0  0  0  0  0  0  0  0  0  0  0
  1  2  2  0  0  0  0
  1  4  1  0  0  0  0
  1 11  1  0  0  0  0
  2  3  1  0  0  0  0
  3  6  2  0  0  0  0
  3 12  1  0  0  0  0
  4  5  2  0  0  0  0
  5  6  1  0  0  0  0
  5 10  1  0  0  0  0
  6  7  1  0  0  0  0
  7  8  2  0  0  0  0
  8  9  1  0  0  0  0
  9 10  2  0  0  0  0
 11 24  2  0  0  0  0
 12 13  2  0  0  0  0
 12 15  1  0  0  0  0
 13 14  1  0  0  0  0
 14 17  2  0  0  0  0
 15 16  2  0  0  0  0
 16 17  1  0  0  0  0
 16 20  1  0  0  0  0
 17 18  1  0  0  0  0
 18 19  2  0  0  0  0
 19 20  1  0  0  0  0
 20 21  1  0  0  0  0
 21 22  1  0  0  0  0
 21 23  1  0  0  0  0
 24 25  1  0  0  0  0
 24 29  1  0  0  0  0
 25 26  2  0  0  0  0
 26 27  1  0  0  0  0
 27 28  2  0  0  0  0
 28 29  1  0  0  0  0
 29 30  1  0  0  0  0
 30 31  2  0  0  0  0
 30 32  2  0  0  0  0
 30 33  1  0  0  0  0
  2 34  1  0  0  0  0
  4 35  1  0  0  0  0
  8 36  1  0  0  0  0
  9 37  1  0  0  0  0
 13 38  1  0  0  0  0
 14 39  1  0  0  0  0
 15 40  1  0  0  0  0
 18 41  1  0  0  0  0
 19 42  1  0  0  0  0
 21 43  1  0  0  0  0
 22 44  1  0  0  0  0
 22 45  1  0  0  0  0
 22 46  1  0  0  0  0
 23 47  1  0  0  0  0
 23 48  1  0  0  0  0
 23 49  1  0  0  0  0
 25 50  1  0  0  0  0
 27 51  1  0  0  0  0
 28 52  1  0  0  0  0
 29 53  1  0  0  0  0
 33 54  1  0  0  0  0
 33 55  1  0  0  0  0
 33 56  1  0  0  0  0
M  END
> <ID>
54

> <IC50[uM]>
1.01

$$$$
54
  -OEChem-05192314313D
 Structure written by MMmdl.
 56 60  0     0  0  0  0  0  0999 V2000
   91.6126   48.3353  266.6703 C   0  0  0  0  0  0  0  0  0  0  0  0
   91.9733   49.5324  267.2808 C   0  0  0  0  0  0  0  0  0  0  0  0
   93.2894   49.7956  267.6797 C   0  0  0  0  0  0  0  0  0  0  0  0
   92.5692   47.3436  266.4692 C   0  0  0  0  0  0  0  0  0  0  0  0
   93.8975   47.5406  266.9051 C   0  0  0  0  0  0  0  0  0  0  0  0
   94.2749   48.7798  267.5080 C   0  0  0  0  0  0  0  0  0  0  0  0
   95.5631   48.9638  267.9368 N   0  0  0  0  0  0  0  0  0  0  0  0
   96.4503   47.9554  267.7480 C   0  0  0  0  0  0  0  0  0  0  0  0
   96.0641   46.7442  267.1890 C   0  0  0  0  0  0  0  0  0  0  0  0
   94.7980   46.5299  266.7611 N   0  0  0  0  0  0  0  0  0  0  0  0
   90.2745   48.1250  266.3159 N   0  0  0  0  0  0  0  0  0  0  0  0
   93.6036   51.0937  268.3225 C   0  0  0  0  0  0  0  0  0  0  0  0
   94.5719   51.9443  267.7904 C   0  0  0  0  0  0  0  0  0  0  0  0
   94.8678   53.1797  268.3665 C   0  0  0  0  0  0  0  0  0  0  0  0
   92.9154   51.4322  269.4867 C   0  0  0  0  0  0  0  0  0  0  0  0
   93.2133   52.6617  270.0729 C   0  0  0  0  0  0  0  0  0  0  0  0
   94.1579   53.5698  269.5118 C   0  0  0  0  0  0  0  0  0  0  0  0
   94.1541   54.7093  270.3309 C   0  0  0  0  0  0  0  0  0  0  0  0
   93.2816   54.4947  271.3567 C   0  0  0  0  0  0  0  0  0  0  0  0
   92.7302   53.2407  271.2278 N   0  0  0  0  0  0  0  0  0  0  0  0
   91.7687   52.6196  272.1281 C   0  0  0  0  0  0  0  0  0  0  0  0
   91.6695   53.3551  273.4819 C   0  0  0  0  0  0  0  0  0  0  0  0
   90.4002   52.4193  271.3856 C   0  0  0  0  0  0  0  0  0  0  0  0
   89.7164   47.3465  265.2896 C   0  0  0  0  0  0  0  0  0  0  0  0
   90.4207   47.1272  264.0986 C   0  0  0  0  0  0  0  0  0  0  0  0
   89.9174   46.4367  263.0451 N   0  0  0  0  0  0  0  0  0  0  0  0
   88.6611   45.9399  263.1652 C   0  0  0  0  0  0  0  0  0  0  0  0
   87.8879   46.0951  264.3148 C   0  0  0  0  0  0  0  0  0  0  0  0
   88.4239   46.8032  265.3975 C   0  0  0  0  0  0  0  0  0  0  0  0
   87.4822   46.8958  266.9257 S   0  0  0  0  0  0  0  0  0  0  0  0
   86.1360   46.3755  266.6687 O   0  0  0  0  0  0  0  0  0  0  0  0
   87.6578   48.2428  267.4781 O   0  0  0  0  0  0  0  0  0  0  0  0
   88.3798   45.6764  268.0436 C   0  0  0  0  0  0  0  0  0  0  0  0
   91.2147   50.2817  267.4523 H   0  0  0  0  0  0  0  0  0  0  0  0
   92.2944   46.4215  265.9786 H   0  0  0  0  0  0  0  0  0  0  0  0
   97.4806   48.0976  268.0390 H   0  0  0  0  0  0  0  0  0  0  0  0
   96.7928   45.9529  267.0932 H   0  0  0  0  0  0  0  0  0  0  0  0
   95.1091   51.6372  266.9053 H   0  0  0  0  0  0  0  0  0  0  0  0
   95.6256   53.8208  267.9408 H   0  0  0  0  0  0  0  0  0  0  0  0
   92.1805   50.7683  269.9175 H   0  0  0  0  0  0  0  0  0  0  0  0
   94.7411   55.6024  270.1756 H   0  0  0  0  0  0  0  0  0  0  0  0
   93.0587   55.1979  272.1455 H   0  0  0  0  0  0  0  0  0  0  0  0
   92.1402   51.6092  272.3542 H   0  0  0  0  0  0  0  0  0  0  0  0
   90.9328   52.8479  274.1223 H   0  0  0  0  0  0  0  0  0  0  0  0
   92.6521   53.3470  273.9763 H   0  0  0  0  0  0  0  0  0  0  0  0
   91.3531   54.3948  273.3119 H   0  0  0  0  0  0  0  0  0  0  0  0
   89.6770   51.9501  272.0688 H   0  0  0  0  0  0  0  0  0  0  0  0
   90.0145   53.3960  271.0580 H   0  0  0  0  0  0  0  0  0  0  0  0
   90.5500   51.7716  270.5092 H   0  0  0  0  0  0  0  0  0  0  0  0
   91.4192   47.5300  264.0146 H   0  0  0  0  0  0  0  0  0  0  0  0
   88.0790   46.3878  262.3463 H   0  0  0  0  0  0  0  0  0  0  0  0
   88.7478   44.8554  263.0030 H   0  0  0  0  0  0  0  0  0  0  0  0
   86.8937   45.6769  264.3694 H   0  0  0  0  0  0  0  0  0  0  0  0
   87.8853   45.6461  269.0257 H   0  0  0  0  0  0  0  0  0  0  0  0
   88.3540   44.6750  267.5891 H   0  0  0  0  0  0  0  0  0  0  0  0
   89.4251   45.9952  268.1692 H   0  0  0  0  0  0  0  0  0  0  0  0
  1  2  2  0  0  0  0
  1  4  1  0  0  0  0
  1 11  1  0  0  0  0
  2  3  1  0  0  0  0
  3  6  2  0  0  0  0
  3 12  1  0  0  0  0
  4  5  2  0  0  0  0
  5  6  1  0  0  0  0
  5 10  1  0  0  0  0
  6  7  1  0  0  0  0
  7  8  2  0  0  0  0
  8  9  1  0  0  0  0
  9 10  2  0  0  0  0
 11 24  2  0  0  0  0
 12 13  2  0  0  0  0
 12 15  1  0  0  0  0
 13 14  1  0  0  0  0
 14 17  2  0  0  0  0
 15 16  2  0  0  0  0
 16 17  1  0  0  0  0
 16 20  1  0  0  0  0
 17 18  1  0  0  0  0
 18 19  2  0  0  0  0
 19 20  1  0  0  0  0
 20 21  1  0  0  0  0
 21 22  1  0  0  0  0
 21 23  1  0  0  0  0
 24 25  1  0  0  0  0
 24 29  1  0  0  0  0
 25 26  2  0  0  0  0
 26 27  1  0  0  0  0
 27 28  1  0  0  0  0
 28 29  2  0  0  0  0
 29 30  1  0  0  0  0
 30 31  2  0  0  0  0
 30 32  2  0  0  0  0
 30 33  1  0  0  0  0
  2 34  1  0  0  0  0
  4 35  1  0  0  0  0
  8 36  1  0  0  0  0
  9 37  1  0  0  0  0
 13 38  1  0  0  0  0
 14 39  1  0  0  0  0
 15 40  1  0  0  0  0
 18 41  1  0  0  0  0
 19 42  1  0  0  0  0
 21 43  1  0  0  0  0
 22 44  1  0  0  0  0
 22 45  1  0  0  0  0
 22 46  1  0  0  0  0
 23 47  1  0  0  0  0
 23 48  1  0  0  0  0
 23 49  1  0  0  0  0
 25 50  1  0  0  0  0
 27 51  1  0  0  0  0
 27 52  1  0  0  0  0
 28 53  1  0  0  0  0
 33 54  1  0  0  0  0
 33 55  1  0  0  0  0
 33 56  1  0  0  0  0
M  END
> <ID>
54

> <IC50[uM]>
1.01

$$$$
54
  -OEChem-05192314313D
 Structure written by MMmdl.
 56 60  0     0  0  0  0  0  0999 V2000
   91.6126   48.3353  266.6703 C   0  0  0  0  0  0  0  0  0  0  0  0
   91.9733   49.5324  267.2808 C   0  0  0  0  0  0  0  0  0  0  0  0
   93.2894   49.7956  267.6797 C   0  0  0  0  0  0  0  0  0  0  0  0
   92.5692   47.3436  266.4692 C   0  0  0  0  0  0  0  0  0  0  0  0
   93.8975   47.5406  266.9051 C   0  0  0  0  0  0  0  0  0  0  0  0
   94.2749   48.7798  267.5080 C   0  0  0  0  0  0  0  0  0  0  0  0
   95.5631   48.9638  267.9368 N   0  0  0  0  0  0  0  0  0  0  0  0
   96.4503   47.9554  267.7480 C   0  0  0  0  0  0  0  0  0  0  0  0
   96.0641   46.7442  267.1890 C   0  0  0  0  0  0  0  0  0  0  0  0
   94.7980   46.5299  266.7611 N   0  0  0  0  0  0  0  0  0  0  0  0
   90.2745   48.1250  266.3159 N   0  0  0  0  0  0  0  0  0  0  0  0
   93.6036   51.0937  268.3225 C   0  0  0  0  0  0  0  0  0  0  0  0
   94.5719   51.9443  267.7904 C   0  0  0  0  0  0  0  0  0  0  0  0
   94.8678   53.1797  268.3665 C   0  0  0  0  0  0  0  0  0  0  0  0
   92.9154   51.4322  269.4867 C   0  0  0  0  0  0  0  0  0  0  0  0
   93.2133   52.6617  270.0729 C   0  0  0  0  0  0  0  0  0  0  0  0
   94.1579   53.5698  269.5118 C   0  0  0  0  0  0  0  0  0  0  0  0
   94.1541   54.7093  270.3309 C   0  0  0  0  0  0  0  0  0  0  0  0
   93.2816   54.4947  271.3567 C   0  0  0  0  0  0  0  0  0  0  0  0
   92.7302   53.2407  271.2278 N   0  0  0  0  0  0  0  0  0  0  0  0
   91.7687   52.6196  272.1281 C   0  0  0  0  0  0  0  0  0  0  0  0
   91.6695   53.3551  273.4819 C   0  0  0  0  0  0  0  0  0  0  0  0
   90.4002   52.4193  271.3856 C   0  0  0  0  0  0  0  0  0  0  0  0
   89.7164   47.3465  265.2896 C   0  0  0  0  0  0  0  0  0  0  0  0
   90.4207   47.1272  264.0986 C   0  0  0  0  0  0  0  0  0  0  0  0
   89.9174   46.4367  263.0451 N   0  0  0  0  0  0  0  0  0  0  0  0
   88.6611   45.9399  263.1652 C   0  0  0  0  0  0  0  0  0  0  0  0
   87.8879   46.0951  264.3148 C   0  0  0  0  0  0  0  0  0  0  0  0
   88.4239   46.8032  265.3975 C   0  0  0  0  0  0  0  0  0  0  0  0
   87.4822   46.8958  266.9257 S   0  0  0  0  0  0  0  0  0  0  0  0
   86.1360   46.3755  266.6687 O   0  0  0  0  0  0  0  0  0  0  0  0
   87.6578   48.2428  267.4781 O   0  0  0  0  0  0  0  0  0  0  0  0
   88.3798   45.6764  268.0436 C   0  0  0  0  0  0  0  0  0  0  0  0
   91.2147   50.2817  267.4523 H   0  0  0  0  0  0  0  0  0  0  0  0
   92.2944   46.4215  265.9786 H   0  0  0  0  0  0  0  0  0  0  0  0
   97.4806   48.0976  268.0390 H   0  0  0  0  0  0  0  0  0  0  0  0
   96.7928   45.9529  267.0932 H   0  0  0  0  0  0  0  0  0  0  0  0
   95.1091   51.6372  266.9053 H   0  0  0  0  0  0  0  0  0  0  0  0
   95.6256   53.8208  267.9408 H   0  0  0  0  0  0  0  0  0  0  0  0
   92.1805   50.7683  269.9175 H   0  0  0  0  0  0  0  0  0  0  0  0
   94.7411   55.6024  270.1756 H   0  0  0  0  0  0  0  0  0  0  0  0
   93.0587   55.1979  272.1455 H   0  0  0  0  0  0  0  0  0  0  0  0
   92.1402   51.6092  272.3542 H   0  0  0  0  0  0  0  0  0  0  0  0
   90.9328   52.8479  274.1223 H   0  0  0  0  0  0  0  0  0  0  0  0
   92.6521   53.3470  273.9763 H   0  0  0  0  0  0  0  0  0  0  0  0
   91.3531   54.3948  273.3119 H   0  0  0  0  0  0  0  0  0  0  0  0
   89.6770   51.9501  272.0688 H   0  0  0  0  0  0  0  0  0  0  0  0
   90.0145   53.3960  271.0580 H   0  0  0  0  0  0  0  0  0  0  0  0
   90.5500   51.7716  270.5092 H   0  0  0  0  0  0  0  0  0  0  0  0
   90.6723   48.1253  263.7106 H   0  0  0  0  0  0  0  0  0  0  0  0
   91.3435   46.6029  264.3878 H   0  0  0  0  0  0  0  0  0  0  0  0
   88.2399   45.3986  262.3310 H   0  0  0  0  0  0  0  0  0  0  0  0
   86.8937   45.6769  264.3694 H   0  0  0  0  0  0  0  0  0  0  0  0
   87.8853   45.6461  269.0257 H   0  0  0  0  0  0  0  0  0  0  0  0
   88.3540   44.6750  267.5891 H   0  0  0  0  0  0  0  0  0  0  0  0
   89.4251   45.9952  268.1692 H   0  0  0  0  0  0  0  0  0  0  0  0
  1  2  2  0  0  0  0
  1  4  1  0  0  0  0
  1 11  1  0  0  0  0
  2  3  1  0  0  0  0
  3  6  2  0  0  0  0
  3 12  1  0  0  0  0
  4  5  2  0  0  0  0
  5  6  1  0  0  0  0
  5 10  1  0  0  0  0
  6  7  1  0  0  0  0
  7  8  2  0  0  0  0
  8  9  1  0  0  0  0
  9 10  2  0  0  0  0
 11 24  2  0  0  0  0
 12 13  2  0  0  0  0
 12 15  1  0  0  0  0
 13 14  1  0  0  0  0
 14 17  2  0  0  0  0
 15 16  2  0  0  0  0
 16 17  1  0  0  0  0
 16 20  1  0  0  0  0
 17 18  1  0  0  0  0
 18 19  2  0  0  0  0
 19 20  1  0  0  0  0
 20 21  1  0  0  0  0
 21 22  1  0  0  0  0
 21 23  1  0  0  0  0
 24 25  1  0  0  0  0
 24 29  1  0  0  0  0
 25 26  1  0  0  0  0
 26 27  2  0  0  0  0
 27 28  1  0  0  0  0
 28 29  2  0  0  0  0
 29 30  1  0  0  0  0
 30 31  2  0  0  0  0
 30 32  2  0  0  0  0
 30 33  1  0  0  0  0
  2 34  1  0  0  0  0
  4 35  1  0  0  0  0
  8 36  1  0  0  0  0
  9 37  1  0  0  0  0
 13 38  1  0  0  0  0
 14 39  1  0  0  0  0
 15 40  1  0  0  0  0
 18 41  1  0  0  0  0
 19 42  1  0  0  0  0
 21 43  1  0  0  0  0
 22 44  1  0  0  0  0
 22 45  1  0  0  0  0
 22 46  1  0  0  0  0
 23 47  1  0  0  0  0
 23 48  1  0  0  0  0
 23 49  1  0  0  0  0
 25 50  1  0  0  0  0
 25 51  1  0  0  0  0
 27 52  1  0  0  0  0
 28 53  1  0  0  0  0
 33 54  1  0  0  0  0
 33 55  1  0  0  0  0
 33 56  1  0  0  0  0
M  END
> <ID>
54

> <IC50[uM]>
1.01

$$$$
54
  -OEChem-05192314313D
 Structure written by MMmdl.
 56 60  0     1  0  0  0  0  0999 V2000
   91.6126   48.3353  266.6703 C   0  0  0  0  0  0  0  0  0  0  0  0
   91.9733   49.5324  267.2808 C   0  0  0  0  0  0  0  0  0  0  0  0
   93.2894   49.7956  267.6797 C   0  0  0  0  0  0  0  0  0  0  0  0
   92.5692   47.3436  266.4692 C   0  0  0  0  0  0  0  0  0  0  0  0
   93.8975   47.5406  266.9051 C   0  0  0  0  0  0  0  0  0  0  0  0
   94.2749   48.7798  267.5080 C   0  0  3  0  0  0  0  0  0  0  0  0
   95.5631   48.9638  267.9368 N   0  0  0  0  0  0  0  0  0  0  0  0
   96.4503   47.9554  267.7480 C   0  0  0  0  0  0  0  0  0  0  0  0
   96.0641   46.7442  267.1890 C   0  0  0  0  0  0  0  0  0  0  0  0
   94.7980   46.5299  266.7611 N   0  0  0  0  0  0  0  0  0  0  0  0
   90.2745   48.1250  266.3159 N   0  0  0  0  0  0  0  0  0  0  0  0
   93.6036   51.0937  268.3225 C   0  0  0  0  0  0  0  0  0  0  0  0
   94.5719   51.9443  267.7904 C   0  0  0  0  0  0  0  0  0  0  0  0
   94.8678   53.1797  268.3665 C   0  0  0  0  0  0  0  0  0  0  0  0
   92.9154   51.4322  269.4867 C   0  0  0  0  0  0  0  0  0  0  0  0
   93.2133   52.6617  270.0729 C   0  0  0  0  0  0  0  0  0  0  0  0
   94.1579   53.5698  269.5118 C   0  0  0  0  0  0  0  0  0  0  0  0
   94.1541   54.7093  270.3309 C   0  0  0  0  0  0  0  0  0  0  0  0
   93.2816   54.4947  271.3567 C   0  0  0  0  0  0  0  0  0  0  0  0
   92.7302   53.2407  271.2278 N   0  0  0  0  0  0  0  0  0  0  0  0
   91.7687   52.6196  272.1281 C   0  0  0  0  0  0  0  0  0  0  0  0
   91.6695   53.3551  273.4819 C   0  0  0  0  0  0  0  0  0  0  0  0
   90.4002   52.4193  271.3856 C   0  0  0  0  0  0  0  0  0  0  0  0
   89.7164   47.3465  265.2896 C   0  0  0  0  0  0  0  0  0  0  0  0
   90.4207   47.1272  264.0986 C   0  0  0  0  0  0  0  0  0  0  0  0
   89.9174   46.4367  263.0451 N   0  0  0  0  0  0  0  0  0  0  0  0
   88.6611   45.9399  263.1652 C   0  0  0  0  0  0  0  0  0  0  0  0
   87.8879   46.0951  264.3148 C   0  0  0  0  0  0  0  0  0  0  0  0
   88.4239   46.8032  265.3975 C   0  0  0  0  0  0  0  0  0  0  0  0
   87.4822   46.8958  266.9257 S   0  0  0  0  0  0  0  0  0  0  0  0
   86.1360   46.3755  266.6687 O   0  0  0  0  0  0  0  0  0  0  0  0
   87.6578   48.2428  267.4781 O   0  0  0  0  0  0  0  0  0  0  0  0
   88.3798   45.6764  268.0436 C   0  0  0  0  0  0  0  0  0  0  0  0
   91.2147   50.2817  267.4523 H   0  0  0  0  0  0  0  0  0  0  0  0
   92.2944   46.4215  265.9786 H   0  0  0  0  0  0  0  0  0  0  0  0
   94.5363   49.1893  266.5211 H   0  0  0  0  0  0  0  0  0  0  0  0
   97.4806   48.0976  268.0390 H   0  0  0  0  0  0  0  0  0  0  0  0
   96.7928   45.9529  267.0932 H   0  0  0  0  0  0  0  0  0  0  0  0
   95.1091   51.6372  266.9053 H   0  0  0  0  0  0  0  0  0  0  0  0
   95.6256   53.8208  267.9408 H   0  0  0  0  0  0  0  0  0  0  0  0
   92.1805   50.7683  269.9175 H   0  0  0  0  0  0  0  0  0  0  0  0
   94.7411   55.6024  270.1756 H   0  0  0  0  0  0  0  0  0  0  0  0
   93.0587   55.1979  272.1455 H   0  0  0  0  0  0  0  0  0  0  0  0
   92.1402   51.6092  272.3542 H   0  0  0  0  0  0  0  0  0  0  0  0
   90.9328   52.8479  274.1223 H   0  0  0  0  0  0  0  0  0  0  0  0
   92.6521   53.3470  273.9763 H   0  0  0  0  0  0  0  0  0  0  0  0
   91.3531   54.3948  273.3119 H   0  0  0  0  0  0  0  0  0  0  0  0
   89.6770   51.9501  272.0688 H   0  0  0  0  0  0  0  0  0  0  0  0
   90.0145   53.3960  271.0580 H   0  0  0  0  0  0  0  0  0  0  0  0
   90.5500   51.7716  270.5092 H   0  0  0  0  0  0  0  0  0  0  0  0
   91.4192   47.5300  264.0146 H   0  0  0  0  0  0  0  0  0  0  0  0
   88.2399   45.3986  262.3310 H   0  0  0  0  0  0  0  0  0  0  0  0
   86.8937   45.6769  264.3694 H   0  0  0  0  0  0  0  0  0  0  0  0
   87.8853   45.6461  269.0257 H   0  0  0  0  0  0  0  0  0  0  0  0
   88.3540   44.6750  267.5891 H   0  0  0  0  0  0  0  0  0  0  0  0
   89.4251   45.9952  268.1692 H   0  0  0  0  0  0  0  0  0  0  0  0
  1  2  1  0  0  0  0
  1  4  1  0  0  0  0
  1 11  2  0  0  0  0
  2  3  2  0  0  0  0
  3  6  1  0  0  0  0
  3 12  1  0  0  0  0
  4  5  2  0  0  0  0
  5  6  1  0  0  0  0
  5 10  1  0  0  0  0
  6  7  1  0  0  0  0
  7  8  2  0  0  0  0
  8  9  1  0  0  0  0
  9 10  2  0  0  0  0
 11 24  1  0  0  0  0
 12 13  2  0  0  0  0
 12 15  1  0  0  0  0
 13 14  1  0  0  0  0
 14 17  2  0  0  0  0
 15 16  2  0  0  0  0
 16 17  1  0  0  0  0
 16 20  1  0  0  0  0
 17 18  1  0  0  0  0
 18 19  2  0  0  0  0
 19 20  1  0  0  0  0
 20 21  1  0  0  0  0
 21 22  1  0  0  0  0
 21 23  1  0  0  0  0
 24 25  2  0  0  0  0
 24 29  1  0  0  0  0
 25 26  1  0  0  0  0
 26 27  2  0  0  0  0
 27 28  1  0  0  0  0
 28 29  2  0  0  0  0
 29 30  1  0  0  0  0
 30 31  2  0  0  0  0
 30 32  2  0  0  0  0
 30 33  1  0  0  0  0
  2 34  1  0  0  0  0
  4 35  1  0  0  0  0
  6 36  1  0  0  0  0
  8 37  1  0  0  0  0
  9 38  1  0  0  0  0
 13 39  1  0  0  0  0
 14 40  1  0  0  0  0
 15 41  1  0  0  0  0
 18 42  1  0  0  0  0
 19 43  1  0  0  0  0
 21 44  1  0  0  0  0
 22 45  1  0  0  0  0
 22 46  1  0  0  0  0
 22 47  1  0  0  0  0
 23 48  1  0  0  0  0
 23 49  1  0  0  0  0
 23 50  1  0  0  0  0
 25 51  1  0  0  0  0
 27 52  1  0  0  0  0
 28 53  1  0  0  0  0
 33 54  1  0  0  0  0
 33 55  1  0  0  0  0
 33 56  1  0  0  0  0
M  END
> <ID>
54

> <IC50[uM]>
1.01

$$$$
54
  -OEChem-05192314313D
 Structure written by MMmdl.
 56 60  0     0  0  0  0  0  0999 V2000
   91.6126   48.3353  266.6703 C   0  0  0  0  0  0  0  0  0  0  0  0
   91.9733   49.5324  267.2808 C   0  0  0  0  0  0  0  0  0  0  0  0
   93.2894   49.7956  267.6797 C   0  0  0  0  0  0  0  0  0  0  0  0
   92.5692   47.3436  266.4692 C   0  0  0  0  0  0  0  0  0  0  0  0
   93.8975   47.5406  266.9051 C   0  0  0  0  0  0  0  0  0  0  0  0
   94.2749   48.7798  267.5080 C   0  0  0  0  0  0  0  0  0  0  0  0
   95.5631   48.9638  267.9368 N   0  0  0  0  0  0  0  0  0  0  0  0
   96.4503   47.9554  267.7480 C   0  0  0  0  0  0  0  0  0  0  0  0
   96.0641   46.7442  267.1890 C   0  0  0  0  0  0  0  0  0  0  0  0
   94.7980   46.5299  266.7611 N   0  0  0  0  0  0  0  0  0  0  0  0
   90.2745   48.1250  266.3159 N   0  0  0  0  0  0  0  0  0  0  0  0
   93.6036   51.0937  268.3225 C   0  0  0  0  0  0  0  0  0  0  0  0
   94.5719   51.9443  267.7904 C   0  0  0  0  0  0  0  0  0  0  0  0
   94.8678   53.1797  268.3665 C   0  0  0  0  0  0  0  0  0  0  0  0
   92.9154   51.4322  269.4867 C   0  0  0  0  0  0  0  0  0  0  0  0
   93.2133   52.6617  270.0729 C   0  0  0  0  0  0  0  0  0  0  0  0
   94.1579   53.5698  269.5118 C   0  0  0  0  0  0  0  0  0  0  0  0
   94.1541   54.7093  270.3309 C   0  0  0  0  0  0  0  0  0  0  0  0
   93.2816   54.4947  271.3567 C   0  0  0  0  0  0  0  0  0  0  0  0
   92.7302   53.2407  271.2278 N   0  0  0  0  0  0  0  0  0  0  0  0
   91.7687   52.6196  272.1281 C   0  0  0  0  0  0  0  0  0  0  0  0
   91.6695   53.3551  273.4819 C   0  0  0  0  0  0  0  0  0  0  0  0
   90.4002   52.4193  271.3856 C   0  0  0  0  0  0  0  0  0  0  0  0
   89.7164   47.3465  265.2896 C   0  0  0  0  0  0  0  0  0  0  0  0
   90.4207   47.1272  264.0986 C   0  0  0  0  0  0  0  0  0  0  0  0
   89.9174   46.4367  263.0451 N   0  0  0  0  0  0  0  0  0  0  0  0
   88.6611   45.9399  263.1652 C   0  0  0  0  0  0  0  0  0  0  0  0
   87.8879   46.0951  264.3148 C   0  0  0  0  0  0  0  0  0  0  0  0
   88.4239   46.8032  265.3975 C   0  0  0  0  0  0  0  0  0  0  0  0
   87.4822   46.8958  266.9257 S   0  0  0  0  0  0  0  0  0  0  0  0
   86.1360   46.3755  266.6687 O   0  0  0  0  0  0  0  0  0  0  0  0
   87.6578   48.2428  267.4781 O   0  0  0  0  0  0  0  0  0  0  0  0
   88.3798   45.6764  268.0436 C   0  0  0  0  0  0  0  0  0  0  0  0
   91.2147   50.2817  267.4523 H   0  0  0  0  0  0  0  0  0  0  0  0
   92.2944   46.4215  265.9786 H   0  0  0  0  0  0  0  0  0  0  0  0
   97.2435   48.3572  267.1004 H   0  0  0  0  0  0  0  0  0  0  0  0
   96.8688   47.7209  268.7379 H   0  0  0  0  0  0  0  0  0  0  0  0
   96.7928   45.9529  267.0932 H   0  0  0  0  0  0  0  0  0  0  0  0
   95.1091   51.6372  266.9053 H   0  0  0  0  0  0  0  0  0  0  0  0
   95.6256   53.8208  267.9408 H   0  0  0  0  0  0  0  0  0  0  0  0
   92.1805   50.7683  269.9175 H   0  0  0  0  0  0  0  0  0  0  0  0
   94.7411   55.6024  270.1756 H   0  0  0  0  0  0  0  0  0  0  0  0
   93.0587   55.1979  272.1455 H   0  0  0  0  0  0  0  0  0  0  0  0
   92.1402   51.6092  272.3542 H   0  0  0  0  0  0  0  0  0  0  0  0
   90.9328   52.8479  274.1223 H   0  0  0  0  0  0  0  0  0  0  0  0
   92.6521   53.3470  273.9763 H   0  0  0  0  0  0  0  0  0  0  0  0
   91.3531   54.3948  273.3119 H   0  0  0  0  0  0  0  0  0  0  0  0
   89.6770   51.9501  272.0688 H   0  0  0  0  0  0  0  0  0  0  0  0
   90.0145   53.3960  271.0580 H   0  0  0  0  0  0  0  0  0  0  0  0
   90.5500   51.7716  270.5092 H   0  0  0  0  0  0  0  0  0  0  0  0
   91.4192   47.5300  264.0146 H   0  0  0  0  0  0  0  0  0  0  0  0
   88.2399   45.3986  262.3310 H   0  0  0  0  0  0  0  0  0  0  0  0
   86.8937   45.6769  264.3694 H   0  0  0  0  0  0  0  0  0  0  0  0
   87.8853   45.6461  269.0257 H   0  0  0  0  0  0  0  0  0  0  0  0
   88.3540   44.6750  267.5891 H   0  0  0  0  0  0  0  0  0  0  0  0
   89.4251   45.9952  268.1692 H   0  0  0  0  0  0  0  0  0  0  0  0
  1  2  1  0  0  0  0
  1  4  1  0  0  0  0
  1 11  2  0  0  0  0
  2  3  2  0  0  0  0
  3  6  1  0  0  0  0
  3 12  1  0  0  0  0
  4  5  2  0  0  0  0
  5  6  1  0  0  0  0
  5 10  1  0  0  0  0
  6  7  2  0  0  0  0
  7  8  1  0  0  0  0
  8  9  1  0  0  0  0
  9 10  2  0  0  0  0
 11 24  1  0  0  0  0
 12 13  2  0  0  0  0
 12 15  1  0  0  0  0
 13 14  1  0  0  0  0
 14 17  2  0  0  0  0
 15 16  2  0  0  0  0
 16 17  1  0  0  0  0
 16 20  1  0  0  0  0
 17 18  1  0  0  0  0
 18 19  2  0  0  0  0
 19 20  1  0  0  0  0
 20 21  1  0  0  0  0
 21 22  1  0  0  0  0
 21 23  1  0  0  0  0
 24 25  2  0  0  0  0
 24 29  1  0  0  0  0
 25 26  1  0  0  0  0
 26 27  2  0  0  0  0
 27 28  1  0  0  0  0
 28 29  2  0  0  0  0
 29 30  1  0  0  0  0
 30 31  2  0  0  0  0
 30 32  2  0  0  0  0
 30 33  1  0  0  0  0
  2 34  1  0  0  0  0
  4 35  1  0  0  0  0
  8 36  1  0  0  0  0
  8 37  1  0  0  0  0
  9 38  1  0  0  0  0
 13 39  1  0  0  0  0
 14 40  1  0  0  0  0
 15 41  1  0  0  0  0
 18 42  1  0  0  0  0
 19 43  1  0  0  0  0
 21 44  1  0  0  0  0
 22 45  1  0  0  0  0
 22 46  1  0  0  0  0
 22 47  1  0  0  0  0
 23 48  1  0  0  0  0
 23 49  1  0  0  0  0
 23 50  1  0  0  0  0
 25 51  1  0  0  0  0
 27 52  1  0  0  0  0
 28 53  1  0  0  0  0
 33 54  1  0  0  0  0
 33 55  1  0  0  0  0
 33 56  1  0  0  0  0
M  END
> <ID>
54

> <IC50[uM]>
1.01

$$$$
