30
  -OEChem-05192314313D
 Structure written by MMmdl.
 48 52  0     0  0  0  0  0  0999 V2000
   90.3246   48.2158  265.9106 N   0  0  0  0  0  0  0  0  0  0  0  0
   91.6410   48.3483  266.3682 C   0  0  0  0  0  0  0  0  0  0  0  0
   91.9415   49.5214  267.0589 C   0  0  0  0  0  0  0  0  0  0  0  0
   93.1916   49.7577  267.6267 C   0  0  0  0  0  0  0  0  0  0  0  0
   94.2090   48.7633  267.4940 C   0  0  0  0  0  0  0  0  0  0  0  0
   93.8920   47.5406  266.8142 C   0  0  0  0  0  0  0  0  0  0  0  0
   92.6020   47.3493  266.2505 C   0  0  0  0  0  0  0  0  0  0  0  0
   93.3887   51.0078  268.4028 C   0  0  0  0  0  0  0  0  0  0  0  0
   94.3856   51.9191  268.0632 C   0  0  0  0  0  0  0  0  0  0  0  0
   94.5800   53.0959  268.7844 C   0  0  0  0  0  0  0  0  0  0  0  0
   93.7588   53.3624  269.8875 C   0  0  0  0  0  0  0  0  0  0  0  0
   92.7502   52.4132  270.2359 C   0  0  0  0  0  0  0  0  0  0  0  0
   92.5445   51.2472  269.4912 C   0  0  0  0  0  0  0  0  0  0  0  0
   93.6590   54.4296  270.8315 C   0  0  0  0  0  0  0  0  0  0  0  0
   92.6607   54.0993  271.7192 C   0  0  0  0  0  0  0  0  0  0  0  0
   92.1109   52.8876  271.3697 N   0  0  0  0  0  0  0  0  0  0  0  0
   94.8307   46.5542  266.6953 N   0  0  0  0  0  0  0  0  0  0  0  0
   96.0576   46.7723  267.2282 C   0  0  0  0  0  0  0  0  0  0  0  0
   96.3687   47.9683  267.8707 C   0  0  0  0  0  0  0  0  0  0  0  0
   95.4525   48.9489  268.0267 N   0  0  0  0  0  0  0  0  0  0  0  0
   91.0015   52.2516  272.0349 C   0  0  0  0  0  0  0  0  0  0  0  0
   89.6285   47.2718  265.1312 C   0  0  0  0  0  0  0  0  0  0  0  0
   90.0658   46.7271  263.9099 C   0  0  0  0  0  0  0  0  0  0  0  0
   89.2897   45.8581  263.1888 N   0  0  0  0  0  0  0  0  0  0  0  0
   88.0679   45.5254  263.6665 C   0  0  0  0  0  0  0  0  0  0  0  0
   87.5646   46.0381  264.8536 C   0  0  0  0  0  0  0  0  0  0  0  0
   88.3537   46.9259  265.5834 C   0  0  0  0  0  0  0  0  0  0  0  0
   91.2814   47.0908  263.3524 O   0  0  0  0  0  0  0  0  0  0  0  0
   91.5717   46.7276  261.9951 C   0  0  0  0  0  0  0  0  0  0  0  0
   89.7398   48.9706  266.2077 H   0  0  0  0  0  0  0  0  0  0  0  0
   91.1755   50.2763  267.1577 H   0  0  0  0  0  0  0  0  0  0  0  0
   92.3681   46.4311  265.7321 H   0  0  0  0  0  0  0  0  0  0  0  0
   95.0250   51.7084  267.2187 H   0  0  0  0  0  0  0  0  0  0  0  0
   95.3533   53.7928  268.4966 H   0  0  0  0  0  0  0  0  0  0  0  0
   91.7580   50.5534  269.7490 H   0  0  0  0  0  0  0  0  0  0  0  0
   94.2564   55.3292  270.8460 H   0  0  0  0  0  0  0  0  0  0  0  0
   92.3550   54.7004  272.5628 H   0  0  0  0  0  0  0  0  0  0  0  0
   96.8106   46.0018  267.1530 H   0  0  0  0  0  0  0  0  0  0  0  0
   97.3676   48.1155  268.2539 H   0  0  0  0  0  0  0  0  0  0  0  0
   90.7014   52.8534  272.9054 H   0  0  0  0  0  0  0  0  0  0  0  0
   90.1549   52.1682  271.3376 H   0  0  0  0  0  0  0  0  0  0  0  0
   91.3014   51.2475  272.3693 H   0  0  0  0  0  0  0  0  0  0  0  0
   87.4608   44.8336  263.1015 H   0  0  0  0  0  0  0  0  0  0  0  0
   86.5830   45.7556  265.2045 H   0  0  0  0  0  0  0  0  0  0  0  0
   87.9770   47.3482  266.5032 H   0  0  0  0  0  0  0  0  0  0  0  0
   92.5719   47.0953  261.7225 H   0  0  0  0  0  0  0  0  0  0  0  0
   91.5438   45.6325  261.8947 H   0  0  0  0  0  0  0  0  0  0  0  0
   90.8216   47.1763  261.3271 H   0  0  0  0  0  0  0  0  0  0  0  0
  1  2  1  0  0  0  0
  1 22  1  0  0  0  0
  2  3  2  0  0  0  0
  2  7  1  0  0  0  0
  3  4  1  0  0  0  0
  4  5  2  0  0  0  0
  4  8  1  0  0  0  0
  5 20  1  0  0  0  0
  5  6  1  0  0  0  0
  6  7  2  0  0  0  0
  6 17  1  0  0  0  0
  8  9  2  0  0  0  0
  8 13  1  0  0  0  0
  9 10  1  0  0  0  0
 10 11  2  0  0  0  0
 11 14  1  0  0  0  0
 11 12  1  0  0  0  0
 12 13  2  0  0  0  0
 12 16  1  0  0  0  0
 14 15  2  0  0  0  0
 15 16  1  0  0  0  0
 16 21  1  0  0  0  0
 17 18  2  0  0  0  0
 18 19  1  0  0  0  0
 19 20  2  0  0  0  0
 22 23  2  0  0  0  0
 22 27  1  0  0  0  0
 23 24  1  0  0  0  0
 23 28  1  0  0  0  0
 24 25  2  0  0  0  0
 25 26  1  0  0  0  0
 26 27  2  0  0  0  0
 28 29  1  0  0  0  0
  1 30  1  0  0  0  0
  3 31  1  0  0  0  0
  7 32  1  0  0  0  0
  9 33  1  0  0  0  0
 10 34  1  0  0  0  0
 13 35  1  0  0  0  0
 14 36  1  0  0  0  0
 15 37  1  0  0  0  0
 18 38  1  0  0  0  0
 19 39  1  0  0  0  0
 21 40  1  0  0  0  0
 21 41  1  0  0  0  0
 21 42  1  0  0  0  0
 25 43  1  0  0  0  0
 26 44  1  0  0  0  0
 27 45  1  0  0  0  0
 29 46  1  0  0  0  0
 29 47  1  0  0  0  0
 29 48  1  0  0  0  0
M  END
> <ID>
30

> <IC50[uM]>
0.181

$$$$
30
  -OEChem-05192314313D
 Structure written by MMmdl.
 48 52  0     0  0  0  0  0  0999 V2000
   90.3246   48.2158  265.9106 N   0  0  0  0  0  0  0  0  0  0  0  0
   91.6410   48.3483  266.3682 C   0  0  0  0  0  0  0  0  0  0  0  0
   91.9415   49.5214  267.0589 C   0  0  0  0  0  0  0  0  0  0  0  0
   93.1916   49.7577  267.6267 C   0  0  0  0  0  0  0  0  0  0  0  0
   94.2090   48.7633  267.4940 C   0  0  0  0  0  0  0  0  0  0  0  0
   93.8920   47.5406  266.8142 C   0  0  0  0  0  0  0  0  0  0  0  0
   92.6020   47.3493  266.2505 C   0  0  0  0  0  0  0  0  0  0  0  0
   93.3887   51.0078  268.4028 C   0  0  0  0  0  0  0  0  0  0  0  0
   94.3856   51.9191  268.0632 C   0  0  0  0  0  0  0  0  0  0  0  0
   94.5800   53.0959  268.7844 C   0  0  0  0  0  0  0  0  0  0  0  0
   93.7588   53.3624  269.8875 C   0  0  0  0  0  0  0  0  0  0  0  0
   92.7502   52.4132  270.2359 C   0  0  0  0  0  0  0  0  0  0  0  0
   92.5445   51.2472  269.4912 C   0  0  0  0  0  0  0  0  0  0  0  0
   93.6590   54.4296  270.8315 C   0  0  0  0  0  0  0  0  0  0  0  0
   92.6607   54.0993  271.7192 C   0  0  0  0  0  0  0  0  0  0  0  0
   92.1109   52.8876  271.3697 N   0  0  0  0  0  0  0  0  0  0  0  0
   94.8307   46.5542  266.6953 N   0  0  0  0  0  0  0  0  0  0  0  0
   96.0576   46.7723  267.2282 C   0  0  0  0  0  0  0  0  0  0  0  0
   96.3687   47.9683  267.8707 C   0  0  0  0  0  0  0  0  0  0  0  0
   95.4525   48.9489  268.0267 N   0  0  0  0  0  0  0  0  0  0  0  0
   91.0015   52.2516  272.0349 C   0  0  0  0  0  0  0  0  0  0  0  0
   89.6285   47.2718  265.1312 C   0  0  0  0  0  0  0  0  0  0  0  0
   90.0658   46.7271  263.9099 C   0  0  0  0  0  0  0  0  0  0  0  0
   89.2897   45.8581  263.1888 N   0  0  0  0  0  0  0  0  0  0  0  0
   88.0679   45.5254  263.6665 C   0  0  0  0  0  0  0  0  0  0  0  0
   87.5646   46.0381  264.8536 C   0  0  0  0  0  0  0  0  0  0  0  0
   88.3537   46.9259  265.5834 C   0  0  0  0  0  0  0  0  0  0  0  0
   91.2814   47.0908  263.3524 O   0  0  0  0  0  0  0  0  0  0  0  0
   91.5717   46.7276  261.9951 C   0  0  0  0  0  0  0  0  0  0  0  0
   91.1755   50.2763  267.1577 H   0  0  0  0  0  0  0  0  0  0  0  0
   92.3681   46.4311  265.7321 H   0  0  0  0  0  0  0  0  0  0  0  0
   95.0250   51.7084  267.2187 H   0  0  0  0  0  0  0  0  0  0  0  0
   95.3533   53.7928  268.4966 H   0  0  0  0  0  0  0  0  0  0  0  0
   91.7580   50.5534  269.7490 H   0  0  0  0  0  0  0  0  0  0  0  0
   94.2564   55.3292  270.8460 H   0  0  0  0  0  0  0  0  0  0  0  0
   92.3550   54.7004  272.5628 H   0  0  0  0  0  0  0  0  0  0  0  0
   94.6182   45.6959  266.2283 H   0  0  0  0  0  0  0  0  0  0  0  0
   96.8106   46.0018  267.1530 H   0  0  0  0  0  0  0  0  0  0  0  0
   97.3676   48.1155  268.2539 H   0  0  0  0  0  0  0  0  0  0  0  0
   90.7014   52.8534  272.9054 H   0  0  0  0  0  0  0  0  0  0  0  0
   90.1549   52.1682  271.3376 H   0  0  0  0  0  0  0  0  0  0  0  0
   91.3014   51.2475  272.3693 H   0  0  0  0  0  0  0  0  0  0  0  0
   87.4608   44.8336  263.1015 H   0  0  0  0  0  0  0  0  0  0  0  0
   86.5830   45.7556  265.2045 H   0  0  0  0  0  0  0  0  0  0  0  0
   87.9770   47.3482  266.5032 H   0  0  0  0  0  0  0  0  0  0  0  0
   92.5719   47.0953  261.7225 H   0  0  0  0  0  0  0  0  0  0  0  0
   91.5438   45.6325  261.8947 H   0  0  0  0  0  0  0  0  0  0  0  0
   90.8216   47.1763  261.3271 H   0  0  0  0  0  0  0  0  0  0  0  0
  1  2  2  0  0  0  0
  1 22  1  0  0  0  0
  2  3  1  0  0  0  0
  2  7  1  0  0  0  0
  3  4  2  0  0  0  0
  4  5  1  0  0  0  0
  4  8  1  0  0  0  0
  5 20  2  0  0  0  0
  5  6  1  0  0  0  0
  6  7  2  0  0  0  0
  6 17  1  0  0  0  0
  8  9  2  0  0  0  0
  8 13  1  0  0  0  0
  9 10  1  0  0  0  0
 10 11  2  0  0  0  0
 11 14  1  0  0  0  0
 11 12  1  0  0  0  0
 12 13  2  0  0  0  0
 12 16  1  0  0  0  0
 14 15  2  0  0  0  0
 15 16  1  0  0  0  0
 16 21  1  0  0  0  0
 17 18  1  0  0  0  0
 18 19  2  0  0  0  0
 19 20  1  0  0  0  0
 22 23  2  0  0  0  0
 22 27  1  0  0  0  0
 23 24  1  0  0  0  0
 23 28  1  0  0  0  0
 24 25  2  0  0  0  0
 25 26  1  0  0  0  0
 26 27  2  0  0  0  0
 28 29  1  0  0  0  0
  3 30  1  0  0  0  0
  7 31  1  0  0  0  0
  9 32  1  0  0  0  0
 10 33  1  0  0  0  0
 13 34  1  0  0  0  0
 14 35  1  0  0  0  0
 15 36  1  0  0  0  0
 17 37  1  0  0  0  0
 18 38  1  0  0  0  0
 19 39  1  0  0  0  0
 21 40  1  0  0  0  0
 21 41  1  0  0  0  0
 21 42  1  0  0  0  0
 25 43  1  0  0  0  0
 26 44  1  0  0  0  0
 27 45  1  0  0  0  0
 29 46  1  0  0  0  0
 29 47  1  0  0  0  0
 29 48  1  0  0  0  0
M  END
> <ID>
30

> <IC50[uM]>
0.181

$$$$
30
  -OEChem-05192314313D
 Structure written by MMmdl.
 48 52  0     0  0  0  0  0  0999 V2000
   90.3246   48.2158  265.9106 N   0  0  0  0  0  0  0  0  0  0  0  0
   91.6410   48.3483  266.3682 C   0  0  0  0  0  0  0  0  0  0  0  0
   91.9415   49.5214  267.0589 C   0  0  0  0  0  0  0  0  0  0  0  0
   93.1916   49.7577  267.6267 C   0  0  0  0  0  0  0  0  0  0  0  0
   94.2090   48.7633  267.4940 C   0  0  0  0  0  0  0  0  0  0  0  0
   93.8920   47.5406  266.8142 C   0  0  0  0  0  0  0  0  0  0  0  0
   92.6020   47.3493  266.2505 C   0  0  0  0  0  0  0  0  0  0  0  0
   93.3887   51.0078  268.4028 C   0  0  0  0  0  0  0  0  0  0  0  0
   94.3856   51.9191  268.0632 C   0  0  0  0  0  0  0  0  0  0  0  0
   94.5800   53.0959  268.7844 C   0  0  0  0  0  0  0  0  0  0  0  0
   93.7588   53.3624  269.8875 C   0  0  0  0  0  0  0  0  0  0  0  0
   92.7502   52.4132  270.2359 C   0  0  0  0  0  0  0  0  0  0  0  0
   92.5445   51.2472  269.4912 C   0  0  0  0  0  0  0  0  0  0  0  0
   93.6590   54.4296  270.8315 C   0  0  0  0  0  0  0  0  0  0  0  0
   92.6607   54.0993  271.7192 C   0  0  0  0  0  0  0  0  0  0  0  0
   92.1109   52.8876  271.3697 N   0  0  0  0  0  0  0  0  0  0  0  0
   94.8307   46.5542  266.6953 N   0  0  0  0  0  0  0  0  0  0  0  0
   96.0576   46.7723  267.2282 C   0  0  0  0  0  0  0  0  0  0  0  0
   96.3687   47.9683  267.8707 C   0  0  0  0  0  0  0  0  0  0  0  0
   95.4525   48.9489  268.0267 N   0  0  0  0  0  0  0  0  0  0  0  0
   91.0015   52.2516  272.0349 C   0  0  0  0  0  0  0  0  0  0  0  0
   89.6285   47.2718  265.1312 C   0  0  0  0  0  0  0  0  0  0  0  0
   90.0658   46.7271  263.9099 C   0  0  0  0  0  0  0  0  0  0  0  0
   89.2897   45.8581  263.1888 N   0  0  0  0  0  0  0  0  0  0  0  0
   88.0679   45.5254  263.6665 C   0  0  0  0  0  0  0  0  0  0  0  0
   87.5646   46.0381  264.8536 C   0  0  0  0  0  0  0  0  0  0  0  0
   88.3537   46.9259  265.5834 C   0  0  0  0  0  0  0  0  0  0  0  0
   91.2814   47.0908  263.3524 O   0  0  0  0  0  0  0  0  0  0  0  0
   91.5717   46.7276  261.9951 C   0  0  0  0  0  0  0  0  0  0  0  0
   91.1755   50.2763  267.1577 H   0  0  0  0  0  0  0  0  0  0  0  0
   92.1814   46.4462  266.7168 H   0  0  0  0  0  0  0  0  0  0  0  0
   92.7476   47.1726  265.1746 H   0  0  0  0  0  0  0  0  0  0  0  0
   95.0250   51.7084  267.2187 H   0  0  0  0  0  0  0  0  0  0  0  0
   95.3533   53.7928  268.4966 H   0  0  0  0  0  0  0  0  0  0  0  0
   91.7580   50.5534  269.7490 H   0  0  0  0  0  0  0  0  0  0  0  0
   94.2564   55.3292  270.8460 H   0  0  0  0  0  0  0  0  0  0  0  0
   92.3550   54.7004  272.5628 H   0  0  0  0  0  0  0  0  0  0  0  0
   96.8106   46.0018  267.1530 H   0  0  0  0  0  0  0  0  0  0  0  0
   97.3676   48.1155  268.2539 H   0  0  0  0  0  0  0  0  0  0  0  0
   90.7014   52.8534  272.9054 H   0  0  0  0  0  0  0  0  0  0  0  0
   90.1549   52.1682  271.3376 H   0  0  0  0  0  0  0  0  0  0  0  0
   91.3014   51.2475  272.3693 H   0  0  0  0  0  0  0  0  0  0  0  0
   87.4608   44.8336  263.1015 H   0  0  0  0  0  0  0  0  0  0  0  0
   86.5830   45.7556  265.2045 H   0  0  0  0  0  0  0  0  0  0  0  0
   87.9770   47.3482  266.5032 H   0  0  0  0  0  0  0  0  0  0  0  0
   92.5719   47.0953  261.7225 H   0  0  0  0  0  0  0  0  0  0  0  0
   91.5438   45.6325  261.8947 H   0  0  0  0  0  0  0  0  0  0  0  0
   90.8216   47.1763  261.3271 H   0  0  0  0  0  0  0  0  0  0  0  0
  1  2  2  0  0  0  0
  1 22  1  0  0  0  0
  2  3  1  0  0  0  0
  2  7  1  0  0  0  0
  3  4  2  0  0  0  0
  4  5  1  0  0  0  0
  4  8  1  0  0  0  0
  5 20  2  0  0  0  0
  5  6  1  0  0  0  0
  6  7  1  0  0  0  0
  6 17  2  0  0  0  0
  8  9  2  0  0  0  0
  8 13  1  0  0  0  0
  9 10  1  0  0  0  0
 10 11  2  0  0  0  0
 11 14  1  0  0  0  0
 11 12  1  0  0  0  0
 12 13  2  0  0  0  0
 12 16  1  0  0  0  0
 14 15  2  0  0  0  0
 15 16  1  0  0  0  0
 16 21  1  0  0  0  0
 17 18  1  0  0  0  0
 18 19  2  0  0  0  0
 19 20  1  0  0  0  0
 22 23  2  0  0  0  0
 22 27  1  0  0  0  0
 23 24  1  0  0  0  0
 23 28  1  0  0  0  0
 24 25  2  0  0  0  0
 25 26  1  0  0  0  0
 26 27  2  0  0  0  0
 28 29  1  0  0  0  0
  3 30  1  0  0  0  0
  7 31  1  0  0  0  0
  7 32  1  0  0  0  0
  9 33  1  0  0  0  0
 10 34  1  0  0  0  0
 13 35  1  0  0  0  0
 14 36  1  0  0  0  0
 15 37  1  0  0  0  0
 18 38  1  0  0  0  0
 19 39  1  0  0  0  0
 21 40  1  0  0  0  0
 21 41  1  0  0  0  0
 21 42  1  0  0  0  0
 25 43  1  0  0  0  0
 26 44  1  0  0  0  0
 27 45  1  0  0  0  0
 29 46  1  0  0  0  0
 29 47  1  0  0  0  0
 29 48  1  0  0  0  0
M  END
> <ID>
30

> <IC50[uM]>
0.181

$$$$
30
  -OEChem-05192314313D
 Structure written by MMmdl.
 48 52  0     0  0  0  0  0  0999 V2000
   90.3246   48.2158  265.9106 N   0  0  0  0  0  0  0  0  0  0  0  0
   91.6410   48.3483  266.3682 C   0  0  0  0  0  0  0  0  0  0  0  0
   91.9415   49.5214  267.0589 C   0  0  0  0  0  0  0  0  0  0  0  0
   93.1916   49.7577  267.6267 C   0  0  0  0  0  0  0  0  0  0  0  0
   94.2090   48.7633  267.4940 C   0  0  0  0  0  0  0  0  0  0  0  0
   93.8920   47.5406  266.8142 C   0  0  0  0  0  0  0  0  0  0  0  0
   92.6020   47.3493  266.2505 C   0  0  0  0  0  0  0  0  0  0  0  0
   93.3887   51.0078  268.4028 C   0  0  0  0  0  0  0  0  0  0  0  0
   94.3856   51.9191  268.0632 C   0  0  0  0  0  0  0  0  0  0  0  0
   94.5800   53.0959  268.7844 C   0  0  0  0  0  0  0  0  0  0  0  0
   93.7588   53.3624  269.8875 C   0  0  0  0  0  0  0  0  0  0  0  0
   92.7502   52.4132  270.2359 C   0  0  0  0  0  0  0  0  0  0  0  0
   92.5445   51.2472  269.4912 C   0  0  0  0  0  0  0  0  0  0  0  0
   93.6590   54.4296  270.8315 C   0  0  0  0  0  0  0  0  0  0  0  0
   92.6607   54.0993  271.7192 C   0  0  0  0  0  0  0  0  0  0  0  0
   92.1109   52.8876  271.3697 N   0  0  0  0  0  0  0  0  0  0  0  0
   94.8307   46.5542  266.6953 N   0  0  0  0  0  0  0  0  0  0  0  0
   96.0576   46.7723  267.2282 C   0  0  0  0  0  0  0  0  0  0  0  0
   96.3687   47.9683  267.8707 C   0  0  0  0  0  0  0  0  0  0  0  0
   95.4525   48.9489  268.0267 N   0  0  0  0  0  0  0  0  0  0  0  0
   91.0015   52.2516  272.0349 C   0  0  0  0  0  0  0  0  0  0  0  0
   89.6285   47.2718  265.1312 C   0  0  0  0  0  0  0  0  0  0  0  0
   90.0658   46.7271  263.9099 C   0  0  0  0  0  0  0  0  0  0  0  0
   89.2897   45.8581  263.1888 N   0  0  0  0  0  0  0  0  0  0  0  0
   88.0679   45.5254  263.6665 C   0  0  0  0  0  0  0  0  0  0  0  0
   87.5646   46.0381  264.8536 C   0  0  0  0  0  0  0  0  0  0  0  0
   88.3537   46.9259  265.5834 C   0  0  0  0  0  0  0  0  0  0  0  0
   91.2814   47.0908  263.3524 O   0  0  0  0  0  0  0  0  0  0  0  0
   91.5717   46.7276  261.9951 C   0  0  0  0  0  0  0  0  0  0  0  0
   91.7669   50.3454  266.3514 H   0  0  0  0  0  0  0  0  0  0  0  0
   91.2152   49.5852  267.8825 H   0  0  0  0  0  0  0  0  0  0  0  0
   92.3681   46.4311  265.7321 H   0  0  0  0  0  0  0  0  0  0  0  0
   95.0250   51.7084  267.2187 H   0  0  0  0  0  0  0  0  0  0  0  0
   95.3533   53.7928  268.4966 H   0  0  0  0  0  0  0  0  0  0  0  0
   91.7580   50.5534  269.7490 H   0  0  0  0  0  0  0  0  0  0  0  0
   94.2564   55.3292  270.8460 H   0  0  0  0  0  0  0  0  0  0  0  0
   92.3550   54.7004  272.5628 H   0  0  0  0  0  0  0  0  0  0  0  0
   96.8106   46.0018  267.1530 H   0  0  0  0  0  0  0  0  0  0  0  0
   97.3676   48.1155  268.2539 H   0  0  0  0  0  0  0  0  0  0  0  0
   90.7014   52.8534  272.9054 H   0  0  0  0  0  0  0  0  0  0  0  0
   90.1549   52.1682  271.3376 H   0  0  0  0  0  0  0  0  0  0  0  0
   91.3014   51.2475  272.3693 H   0  0  0  0  0  0  0  0  0  0  0  0
   87.4608   44.8336  263.1015 H   0  0  0  0  0  0  0  0  0  0  0  0
   86.5830   45.7556  265.2045 H   0  0  0  0  0  0  0  0  0  0  0  0
   87.9770   47.3482  266.5032 H   0  0  0  0  0  0  0  0  0  0  0  0
   92.5719   47.0953  261.7225 H   0  0  0  0  0  0  0  0  0  0  0  0
   91.5438   45.6325  261.8947 H   0  0  0  0  0  0  0  0  0  0  0  0
   90.8216   47.1763  261.3271 H   0  0  0  0  0  0  0  0  0  0  0  0
  1  2  2  0  0  0  0
  1 22  1  0  0  0  0
  2  3  1  0  0  0  0
  2  7  1  0  0  0  0
  3  4  1  0  0  0  0
  4  5  2  0  0  0  0
  4  8  1  0  0  0  0
  5 20  1  0  0  0  0
  5  6  1  0  0  0  0
  6  7  2  0  0  0  0
  6 17  1  0  0  0  0
  8  9  2  0  0  0  0
  8 13  1  0  0  0  0
  9 10  1  0  0  0  0
 10 11  2  0  0  0  0
 11 14  1  0  0  0  0
 11 12  1  0  0  0  0
 12 13  2  0  0  0  0
 12 16  1  0  0  0  0
 14 15  2  0  0  0  0
 15 16  1  0  0  0  0
 16 21  1  0  0  0  0
 17 18  2  0  0  0  0
 18 19  1  0  0  0  0
 19 20  2  0  0  0  0
 22 23  2  0  0  0  0
 22 27  1  0  0  0  0
 23 24  1  0  0  0  0
 23 28  1  0  0  0  0
 24 25  2  0  0  0  0
 25 26  1  0  0  0  0
 26 27  2  0  0  0  0
 28 29  1  0  0  0  0
  3 30  1  0  0  0  0
  3 31  1  0  0  0  0
  7 32  1  0  0  0  0
  9 33  1  0  0  0  0
 10 34  1  0  0  0  0
 13 35  1  0  0  0  0
 14 36  1  0  0  0  0
 15 37  1  0  0  0  0
 18 38  1  0  0  0  0
 19 39  1  0  0  0  0
 21 40  1  0  0  0  0
 21 41  1  0  0  0  0
 21 42  1  0  0  0  0
 25 43  1  0  0  0  0
 26 44  1  0  0  0  0
 27 45  1  0  0  0  0
 29 46  1  0  0  0  0
 29 47  1  0  0  0  0
 29 48  1  0  0  0  0
M  END
> <ID>
30

> <IC50[uM]>
0.181

$$$$
30
  -OEChem-05192314313D
 Structure written by MMmdl.
 48 52  0     1  0  0  0  0  0999 V2000
   90.3246   48.2158  265.9106 N   0  0  0  0  0  0  0  0  0  0  0  0
   91.6410   48.3483  266.3682 C   0  0  0  0  0  0  0  0  0  0  0  0
   91.9415   49.5214  267.0589 C   0  0  0  0  0  0  0  0  0  0  0  0
   93.1916   49.7577  267.6267 C   0  0  0  0  0  0  0  0  0  0  0  0
   94.2090   48.7633  267.4940 C   0  0  0  0  0  0  0  0  0  0  0  0
   93.8920   47.5406  266.8142 C   0  0  0  0  0  0  0  0  0  0  0  0
   92.6020   47.3493  266.2505 C   0  0  0  0  0  0  0  0  0  0  0  0
   93.3887   51.0078  268.4028 C   0  0  0  0  0  0  0  0  0  0  0  0
   94.3856   51.9191  268.0632 C   0  0  0  0  0  0  0  0  0  0  0  0
   94.5800   53.0959  268.7844 C   0  0  0  0  0  0  0  0  0  0  0  0
   93.7588   53.3624  269.8875 C   0  0  0  0  0  0  0  0  0  0  0  0
   92.7502   52.4132  270.2359 C   0  0  0  0  0  0  0  0  0  0  0  0
   92.5445   51.2472  269.4912 C   0  0  0  0  0  0  0  0  0  0  0  0
   93.6590   54.4296  270.8315 C   0  0  0  0  0  0  0  0  0  0  0  0
   92.6607   54.0993  271.7192 C   0  0  0  0  0  0  0  0  0  0  0  0
   92.1109   52.8876  271.3697 N   0  0  0  0  0  0  0  0  0  0  0  0
   94.8307   46.5542  266.6953 N   0  0  0  0  0  0  0  0  0  0  0  0
   96.0576   46.7723  267.2282 C   0  0  0  0  0  0  0  0  0  0  0  0
   96.3687   47.9683  267.8707 C   0  0  0  0  0  0  0  0  0  0  0  0
   95.4525   48.9489  268.0267 N   0  0  0  0  0  0  0  0  0  0  0  0
   91.0015   52.2516  272.0349 C   0  0  0  0  0  0  0  0  0  0  0  0
   89.6285   47.2718  265.1312 C   0  0  0  0  0  0  0  0  0  0  0  0
   90.0658   46.7271  263.9099 C   0  0  3  0  0  0  0  0  0  0  0  0
   89.2897   45.8581  263.1888 N   0  0  0  0  0  0  0  0  0  0  0  0
   88.0679   45.5254  263.6665 C   0  0  0  0  0  0  0  0  0  0  0  0
   87.5646   46.0381  264.8536 C   0  0  0  0  0  0  0  0  0  0  0  0
   88.3537   46.9259  265.5834 C   0  0  0  0  0  0  0  0  0  0  0  0
   91.2814   47.0908  263.3524 O   0  0  0  0  0  0  0  0  0  0  0  0
   91.5717   46.7276  261.9951 C   0  0  0  0  0  0  0  0  0  0  0  0
   91.1755   50.2763  267.1577 H   0  0  0  0  0  0  0  0  0  0  0  0
   92.3681   46.4311  265.7321 H   0  0  0  0  0  0  0  0  0  0  0  0
   95.0250   51.7084  267.2187 H   0  0  0  0  0  0  0  0  0  0  0  0
   95.3533   53.7928  268.4966 H   0  0  0  0  0  0  0  0  0  0  0  0
   91.7580   50.5534  269.7490 H   0  0  0  0  0  0  0  0  0  0  0  0
   94.2564   55.3292  270.8460 H   0  0  0  0  0  0  0  0  0  0  0  0
   92.3550   54.7004  272.5628 H   0  0  0  0  0  0  0  0  0  0  0  0
   96.8106   46.0018  267.1530 H   0  0  0  0  0  0  0  0  0  0  0  0
   97.3676   48.1155  268.2539 H   0  0  0  0  0  0  0  0  0  0  0  0
   90.7014   52.8534  272.9054 H   0  0  0  0  0  0  0  0  0  0  0  0
   90.1549   52.1682  271.3376 H   0  0  0  0  0  0  0  0  0  0  0  0
   91.3014   51.2475  272.3693 H   0  0  0  0  0  0  0  0  0  0  0  0
   90.5420   45.8877  264.4378 H   0  0  0  0  0  0  0  0  0  0  0  0
   87.4608   44.8336  263.1015 H   0  0  0  0  0  0  0  0  0  0  0  0
   86.5830   45.7556  265.2045 H   0  0  0  0  0  0  0  0  0  0  0  0
   87.9770   47.3482  266.5032 H   0  0  0  0  0  0  0  0  0  0  0  0
   92.5719   47.0953  261.7225 H   0  0  0  0  0  0  0  0  0  0  0  0
   91.5438   45.6325  261.8947 H   0  0  0  0  0  0  0  0  0  0  0  0
   90.8216   47.1763  261.3271 H   0  0  0  0  0  0  0  0  0  0  0  0
  1  2  1  0  0  0  0
  1 22  2  3  0  0  0
  2  3  2  0  0  0  0
  2  7  1  0  0  0  0
  3  4  1  0  0  0  0
  4  5  2  0  0  0  0
  4  8  1  0  0  0  0
  5 20  1  0  0  0  0
  5  6  1  0  0  0  0
  6  7  2  0  0  0  0
  6 17  1  0  0  0  0
  8  9  2  0  0  0  0
  8 13  1  0  0  0  0
  9 10  1  0  0  0  0
 10 11  2  0  0  0  0
 11 14  1  0  0  0  0
 11 12  1  0  0  0  0
 12 13  2  0  0  0  0
 12 16  1  0  0  0  0
 14 15  2  0  0  0  0
 15 16  1  0  0  0  0
 16 21  1  0  0  0  0
 17 18  2  0  0  0  0
 18 19  1  0  0  0  0
 19 20  2  0  0  0  0
 22 23  1  0  0  0  0
 22 27  1  0  0  0  0
 23 24  1  0  0  0  0
 23 28  1  0  0  0  0
 24 25  2  0  0  0  0
 25 26  1  0  0  0  0
 26 27  2  0  0  0  0
 28 29  1  0  0  0  0
  3 30  1  0  0  0  0
  7 31  1  0  0  0  0
  9 32  1  0  0  0  0
 10 33  1  0  0  0  0
 13 34  1  0  0  0  0
 14 35  1  0  0  0  0
 15 36  1  0  0  0  0
 18 37  1  0  0  0  0
 19 38  1  0  0  0  0
 21 39  1  0  0  0  0
 21 40  1  0  0  0  0
 21 41  1  0  0  0  0
 23 42  1  0  0  0  0
 25 43  1  0  0  0  0
 26 44  1  0  0  0  0
 27 45  1  0  0  0  0
 29 46  1  0  0  0  0
 29 47  1  0  0  0  0
 29 48  1  0  0  0  0
M  END
> <ID>
30

> <IC50[uM]>
0.181

$$$$
30
  -OEChem-05192314313D
 Structure written by MMmdl.
 48 52  0     0  0  0  0  0  0999 V2000
   90.3246   48.2158  265.9106 N   0  0  0  0  0  0  0  0  0  0  0  0
   91.6410   48.3483  266.3682 C   0  0  0  0  0  0  0  0  0  0  0  0
   91.9415   49.5214  267.0589 C   0  0  0  0  0  0  0  0  0  0  0  0
   93.1916   49.7577  267.6267 C   0  0  0  0  0  0  0  0  0  0  0  0
   94.2090   48.7633  267.4940 C   0  0  0  0  0  0  0  0  0  0  0  0
   93.8920   47.5406  266.8142 C   0  0  0  0  0  0  0  0  0  0  0  0
   92.6020   47.3493  266.2505 C   0  0  0  0  0  0  0  0  0  0  0  0
   93.3887   51.0078  268.4028 C   0  0  0  0  0  0  0  0  0  0  0  0
   94.3856   51.9191  268.0632 C   0  0  0  0  0  0  0  0  0  0  0  0
   94.5800   53.0959  268.7844 C   0  0  0  0  0  0  0  0  0  0  0  0
   93.7588   53.3624  269.8875 C   0  0  0  0  0  0  0  0  0  0  0  0
   92.7502   52.4132  270.2359 C   0  0  0  0  0  0  0  0  0  0  0  0
   92.5445   51.2472  269.4912 C   0  0  0  0  0  0  0  0  0  0  0  0
   93.6590   54.4296  270.8315 C   0  0  0  0  0  0  0  0  0  0  0  0
   92.6607   54.0993  271.7192 C   0  0  0  0  0  0  0  0  0  0  0  0
   92.1109   52.8876  271.3697 N   0  0  0  0  0  0  0  0  0  0  0  0
   94.8307   46.5542  266.6953 N   0  0  0  0  0  0  0  0  0  0  0  0
   96.0576   46.7723  267.2282 C   0  0  0  0  0  0  0  0  0  0  0  0
   96.3687   47.9683  267.8707 C   0  0  0  0  0  0  0  0  0  0  0  0
   95.4525   48.9489  268.0267 N   0  0  0  0  0  0  0  0  0  0  0  0
   91.0015   52.2516  272.0349 C   0  0  0  0  0  0  0  0  0  0  0  0
   89.6285   47.2718  265.1312 C   0  0  0  0  0  0  0  0  0  0  0  0
   90.0658   46.7271  263.9099 C   0  0  0  0  0  0  0  0  0  0  0  0
   89.2897   45.8581  263.1888 N   0  0  0  0  0  0  0  0  0  0  0  0
   88.0679   45.5254  263.6665 C   0  0  0  0  0  0  0  0  0  0  0  0
   87.5646   46.0381  264.8536 C   0  0  0  0  0  0  0  0  0  0  0  0
   88.3537   46.9259  265.5834 C   0  0  0  0  0  0  0  0  0  0  0  0
   91.2814   47.0908  263.3524 O   0  0  0  0  0  0  0  0  0  0  0  0
   91.5717   46.7276  261.9951 C   0  0  0  0  0  0  0  0  0  0  0  0
   91.1755   50.2763  267.1577 H   0  0  0  0  0  0  0  0  0  0  0  0
   92.3681   46.4311  265.7321 H   0  0  0  0  0  0  0  0  0  0  0  0
   95.0250   51.7084  267.2187 H   0  0  0  0  0  0  0  0  0  0  0  0
   95.3533   53.7928  268.4966 H   0  0  0  0  0  0  0  0  0  0  0  0
   91.7580   50.5534  269.7490 H   0  0  0  0  0  0  0  0  0  0  0  0
   94.2564   55.3292  270.8460 H   0  0  0  0  0  0  0  0  0  0  0  0
   92.3550   54.7004  272.5628 H   0  0  0  0  0  0  0  0  0  0  0  0
   96.8106   46.0018  267.1530 H   0  0  0  0  0  0  0  0  0  0  0  0
   97.3676   48.1155  268.2539 H   0  0  0  0  0  0  0  0  0  0  0  0
   90.7014   52.8534  272.9054 H   0  0  0  0  0  0  0  0  0  0  0  0
   90.1549   52.1682  271.3376 H   0  0  0  0  0  0  0  0  0  0  0  0
   91.3014   51.2475  272.3693 H   0  0  0  0  0  0  0  0  0  0  0  0
   87.4608   44.8336  263.1015 H   0  0  0  0  0  0  0  0  0  0  0  0
   86.5830   45.7556  265.2045 H   0  0  0  0  0  0  0  0  0  0  0  0
   88.4818   46.4861  266.5835 H   0  0  0  0  0  0  0  0  0  0  0  0
   87.7826   47.8624  265.6652 H   0  0  0  0  0  0  0  0  0  0  0  0
   92.5719   47.0953  261.7225 H   0  0  0  0  0  0  0  0  0  0  0  0
   91.5438   45.6325  261.8947 H   0  0  0  0  0  0  0  0  0  0  0  0
   90.8216   47.1763  261.3271 H   0  0  0  0  0  0  0  0  0  0  0  0
  1  2  1  0  0  0  0
  1 22  2  3  0  0  0
  2  3  2  0  0  0  0
  2  7  1  0  0  0  0
  3  4  1  0  0  0  0
  4  5  2  0  0  0  0
  4  8  1  0  0  0  0
  5 20  1  0  0  0  0
  5  6  1  0  0  0  0
  6  7  2  0  0  0  0
  6 17  1  0  0  0  0
  8  9  2  0  0  0  0
  8 13  1  0  0  0  0
  9 10  1  0  0  0  0
 10 11  2  0  0  0  0
 11 14  1  0  0  0  0
 11 12  1  0  0  0  0
 12 13  2  0  0  0  0
 12 16  1  0  0  0  0
 14 15  2  0  0  0  0
 15 16  1  0  0  0  0
 16 21  1  0  0  0  0
 17 18  2  0  0  0  0
 18 19  1  0  0  0  0
 19 20  2  0  0  0  0
 22 23  1  0  0  0  0
 22 27  1  0  0  0  0
 23 24  2  0  0  0  0
 23 28  1  0  0  0  0
 24 25  1  0  0  0  0
 25 26  2  0  0  0  0
 26 27  1  0  0  0  0
 28 29  1  0  0  0  0
  3 30  1  0  0  0  0
  7 31  1  0  0  0  0
  9 32  1  0  0  0  0
 10 33  1  0  0  0  0
 13 34  1  0  0  0  0
 14 35  1  0  0  0  0
 15 36  1  0  0  0  0
 18 37  1  0  0  0  0
 19 38  1  0  0  0  0
 21 39  1  0  0  0  0
 21 40  1  0  0  0  0
 21 41  1  0  0  0  0
 25 42  1  0  0  0  0
 26 43  1  0  0  0  0
 27 44  1  0  0  0  0
 27 45  1  0  0  0  0
 29 46  1  0  0  0  0
 29 47  1  0  0  0  0
 29 48  1  0  0  0  0
M  END
> <ID>
30

> <IC50[uM]>
0.181

$$$$
30
  -OEChem-05192314313D
 Structure written by MMmdl.
 48 52  0     0  0  0  0  0  0999 V2000
   90.3246   48.2158  265.9106 N   0  0  0  0  0  0  0  0  0  0  0  0
   91.6410   48.3483  266.3682 C   0  0  0  0  0  0  0  0  0  0  0  0
   91.9415   49.5214  267.0589 C   0  0  0  0  0  0  0  0  0  0  0  0
   93.1916   49.7577  267.6267 C   0  0  0  0  0  0  0  0  0  0  0  0
   94.2090   48.7633  267.4940 C   0  0  0  0  0  0  0  0  0  0  0  0
   93.8920   47.5406  266.8142 C   0  0  0  0  0  0  0  0  0  0  0  0
   92.6020   47.3493  266.2505 C   0  0  0  0  0  0  0  0  0  0  0  0
   93.3887   51.0078  268.4028 C   0  0  0  0  0  0  0  0  0  0  0  0
   94.3856   51.9191  268.0632 C   0  0  0  0  0  0  0  0  0  0  0  0
   94.5800   53.0959  268.7844 C   0  0  0  0  0  0  0  0  0  0  0  0
   93.7588   53.3624  269.8875 C   0  0  0  0  0  0  0  0  0  0  0  0
   92.7502   52.4132  270.2359 C   0  0  0  0  0  0  0  0  0  0  0  0
   92.5445   51.2472  269.4912 C   0  0  0  0  0  0  0  0  0  0  0  0
   93.6590   54.4296  270.8315 C   0  0  0  0  0  0  0  0  0  0  0  0
   92.6607   54.0993  271.7192 C   0  0  0  0  0  0  0  0  0  0  0  0
   92.1109   52.8876  271.3697 N   0  0  0  0  0  0  0  0  0  0  0  0
   94.8307   46.5542  266.6953 N   0  0  0  0  0  0  0  0  0  0  0  0
   96.0576   46.7723  267.2282 C   0  0  0  0  0  0  0  0  0  0  0  0
   96.3687   47.9683  267.8707 C   0  0  0  0  0  0  0  0  0  0  0  0
   95.4525   48.9489  268.0267 N   0  0  0  0  0  0  0  0  0  0  0  0
   91.0015   52.2516  272.0349 C   0  0  0  0  0  0  0  0  0  0  0  0
   89.6285   47.2718  265.1312 C   0  0  0  0  0  0  0  0  0  0  0  0
   90.0658   46.7271  263.9099 C   0  0  0  0  0  0  0  0  0  0  0  0
   89.2897   45.8581  263.1888 N   0  0  0  0  0  0  0  0  0  0  0  0
   88.0679   45.5254  263.6665 C   0  0  0  0  0  0  0  0  0  0  0  0
   87.5646   46.0381  264.8536 C   0  0  0  0  0  0  0  0  0  0  0  0
   88.3537   46.9259  265.5834 C   0  0  0  0  0  0  0  0  0  0  0  0
   91.2814   47.0908  263.3524 O   0  0  0  0  0  0  0  0  0  0  0  0
   91.5717   46.7276  261.9951 C   0  0  0  0  0  0  0  0  0  0  0  0
   91.1755   50.2763  267.1577 H   0  0  0  0  0  0  0  0  0  0  0  0
   92.3681   46.4311  265.7321 H   0  0  0  0  0  0  0  0  0  0  0  0
   95.0250   51.7084  267.2187 H   0  0  0  0  0  0  0  0  0  0  0  0
   95.3533   53.7928  268.4966 H   0  0  0  0  0  0  0  0  0  0  0  0
   91.7580   50.5534  269.7490 H   0  0  0  0  0  0  0  0  0  0  0  0
   94.2564   55.3292  270.8460 H   0  0  0  0  0  0  0  0  0  0  0  0
   92.3550   54.7004  272.5628 H   0  0  0  0  0  0  0  0  0  0  0  0
   96.8106   46.0018  267.1530 H   0  0  0  0  0  0  0  0  0  0  0  0
   97.3676   48.1155  268.2539 H   0  0  0  0  0  0  0  0  0  0  0  0
   90.7014   52.8534  272.9054 H   0  0  0  0  0  0  0  0  0  0  0  0
   90.1549   52.1682  271.3376 H   0  0  0  0  0  0  0  0  0  0  0  0
   91.3014   51.2475  272.3693 H   0  0  0  0  0  0  0  0  0  0  0  0
   87.3477   45.8054  262.8836 H   0  0  0  0  0  0  0  0  0  0  0  0
   88.0741   44.4318  263.7849 H   0  0  0  0  0  0  0  0  0  0  0  0
   86.5830   45.7556  265.2045 H   0  0  0  0  0  0  0  0  0  0  0  0
   87.9770   47.3482  266.5032 H   0  0  0  0  0  0  0  0  0  0  0  0
   92.5719   47.0953  261.7225 H   0  0  0  0  0  0  0  0  0  0  0  0
   91.5438   45.6325  261.8947 H   0  0  0  0  0  0  0  0  0  0  0  0
   90.8216   47.1763  261.3271 H   0  0  0  0  0  0  0  0  0  0  0  0
  1  2  1  0  0  0  0
  1 22  2  3  0  0  0
  2  3  2  0  0  0  0
  2  7  1  0  0  0  0
  3  4  1  0  0  0  0
  4  5  2  0  0  0  0
  4  8  1  0  0  0  0
  5 20  1  0  0  0  0
  5  6  1  0  0  0  0
  6  7  2  0  0  0  0
  6 17  1  0  0  0  0
  8  9  2  0  0  0  0
  8 13  1  0  0  0  0
  9 10  1  0  0  0  0
 10 11  2  0  0  0  0
 11 14  1  0  0  0  0
 11 12  1  0  0  0  0
 12 13  2  0  0  0  0
 12 16  1  0  0  0  0
 14 15  2  0  0  0  0
 15 16  1  0  0  0  0
 16 21  1  0  0  0  0
 17 18  2  0  0  0  0
 18 19  1  0  0  0  0
 19 20  2  0  0  0  0
 22 23  1  0  0  0  0
 22 27  1  0  0  0  0
 23 24  2  0  0  0  0
 23 28  1  0  0  0  0
 24 25  1  0  0  0  0
 25 26  1  0  0  0  0
 26 27  2  0  0  0  0
 28 29  1  0  0  0  0
  3 30  1  0  0  0  0
  7 31  1  0  0  0  0
  9 32  1  0  0  0  0
 10 33  1  0  0  0  0
 13 34  1  0  0  0  0
 14 35  1  0  0  0  0
 15 36  1  0  0  0  0
 18 37  1  0  0  0  0
 19 38  1  0  0  0  0
 21 39  1  0  0  0  0
 21 40  1  0  0  0  0
 21 41  1  0  0  0  0
 25 42  1  0  0  0  0
 25 43  1  0  0  0  0
 26 44  1  0  0  0  0
 27 45  1  0  0  0  0
 29 46  1  0  0  0  0
 29 47  1  0  0  0  0
 29 48  1  0  0  0  0
M  END
> <ID>
30

> <IC50[uM]>
0.181

$$$$
30
  -OEChem-05192314313D
 Structure written by MMmdl.
 48 52  0     1  0  0  0  0  0999 V2000
   90.3246   48.2158  265.9106 N   0  0  0  0  0  0  0  0  0  0  0  0
   91.6410   48.3483  266.3682 C   0  0  0  0  0  0  0  0  0  0  0  0
   91.9415   49.5214  267.0589 C   0  0  0  0  0  0  0  0  0  0  0  0
   93.1916   49.7577  267.6267 C   0  0  0  0  0  0  0  0  0  0  0  0
   94.2090   48.7633  267.4940 C   0  0  3  0  0  0  0  0  0  0  0  0
   93.8920   47.5406  266.8142 C   0  0  0  0  0  0  0  0  0  0  0  0
   92.6020   47.3493  266.2505 C   0  0  0  0  0  0  0  0  0  0  0  0
   93.3887   51.0078  268.4028 C   0  0  0  0  0  0  0  0  0  0  0  0
   94.3856   51.9191  268.0632 C   0  0  0  0  0  0  0  0  0  0  0  0
   94.5800   53.0959  268.7844 C   0  0  0  0  0  0  0  0  0  0  0  0
   93.7588   53.3624  269.8875 C   0  0  0  0  0  0  0  0  0  0  0  0
   92.7502   52.4132  270.2359 C   0  0  0  0  0  0  0  0  0  0  0  0
   92.5445   51.2472  269.4912 C   0  0  0  0  0  0  0  0  0  0  0  0
   93.6590   54.4296  270.8315 C   0  0  0  0  0  0  0  0  0  0  0  0
   92.6607   54.0993  271.7192 C   0  0  0  0  0  0  0  0  0  0  0  0
   92.1109   52.8876  271.3697 N   0  0  0  0  0  0  0  0  0  0  0  0
   94.8307   46.5542  266.6953 N   0  0  0  0  0  0  0  0  0  0  0  0
   96.0576   46.7723  267.2282 C   0  0  0  0  0  0  0  0  0  0  0  0
   96.3687   47.9683  267.8707 C   0  0  0  0  0  0  0  0  0  0  0  0
   95.4525   48.9489  268.0267 N   0  0  0  0  0  0  0  0  0  0  0  0
   91.0015   52.2516  272.0349 C   0  0  0  0  0  0  0  0  0  0  0  0
   89.6285   47.2718  265.1312 C   0  0  0  0  0  0  0  0  0  0  0  0
   90.0658   46.7271  263.9099 C   0  0  0  0  0  0  0  0  0  0  0  0
   89.2897   45.8581  263.1888 N   0  0  0  0  0  0  0  0  0  0  0  0
   88.0679   45.5254  263.6665 C   0  0  0  0  0  0  0  0  0  0  0  0
   87.5646   46.0381  264.8536 C   0  0  0  0  0  0  0  0  0  0  0  0
   88.3537   46.9259  265.5834 C   0  0  0  0  0  0  0  0  0  0  0  0
   91.2814   47.0908  263.3524 O   0  0  0  0  0  0  0  0  0  0  0  0
   91.5717   46.7276  261.9951 C   0  0  0  0  0  0  0  0  0  0  0  0
   91.1755   50.2763  267.1577 H   0  0  0  0  0  0  0  0  0  0  0  0
   94.5381   49.2146  266.5463 H   0  0  0  0  0  0  0  0  0  0  0  0
   92.3681   46.4311  265.7321 H   0  0  0  0  0  0  0  0  0  0  0  0
   95.0250   51.7084  267.2187 H   0  0  0  0  0  0  0  0  0  0  0  0
   95.3533   53.7928  268.4966 H   0  0  0  0  0  0  0  0  0  0  0  0
   91.7580   50.5534  269.7490 H   0  0  0  0  0  0  0  0  0  0  0  0
   94.2564   55.3292  270.8460 H   0  0  0  0  0  0  0  0  0  0  0  0
   92.3550   54.7004  272.5628 H   0  0  0  0  0  0  0  0  0  0  0  0
   96.8106   46.0018  267.1530 H   0  0  0  0  0  0  0  0  0  0  0  0
   97.3676   48.1155  268.2539 H   0  0  0  0  0  0  0  0  0  0  0  0
   90.7014   52.8534  272.9054 H   0  0  0  0  0  0  0  0  0  0  0  0
   90.1549   52.1682  271.3376 H   0  0  0  0  0  0  0  0  0  0  0  0
   91.3014   51.2475  272.3693 H   0  0  0  0  0  0  0  0  0  0  0  0
   87.4608   44.8336  263.1015 H   0  0  0  0  0  0  0  0  0  0  0  0
   86.5830   45.7556  265.2045 H   0  0  0  0  0  0  0  0  0  0  0  0
   87.9770   47.3482  266.5032 H   0  0  0  0  0  0  0  0  0  0  0  0
   92.5719   47.0953  261.7225 H   0  0  0  0  0  0  0  0  0  0  0  0
   91.5438   45.6325  261.8947 H   0  0  0  0  0  0  0  0  0  0  0  0
   90.8216   47.1763  261.3271 H   0  0  0  0  0  0  0  0  0  0  0  0
  1  2  2  0  0  0  0
  1 22  1  0  0  0  0
  2  3  1  0  0  0  0
  2  7  1  0  0  0  0
  3  4  2  0  0  0  0
  4  5  1  0  0  0  0
  4  8  1  0  0  0  0
  5 20  1  0  0  0  0
  5  6  1  0  0  0  0
  6  7  2  0  0  0  0
  6 17  1  0  0  0  0
  8  9  2  0  0  0  0
  8 13  1  0  0  0  0
  9 10  1  0  0  0  0
 10 11  2  0  0  0  0
 11 14  1  0  0  0  0
 11 12  1  0  0  0  0
 12 13  2  0  0  0  0
 12 16  1  0  0  0  0
 14 15  2  0  0  0  0
 15 16  1  0  0  0  0
 16 21  1  0  0  0  0
 17 18  2  0  0  0  0
 18 19  1  0  0  0  0
 19 20  2  0  0  0  0
 22 23  2  0  0  0  0
 22 27  1  0  0  0  0
 23 24  1  0  0  0  0
 23 28  1  0  0  0  0
 24 25  2  0  0  0  0
 25 26  1  0  0  0  0
 26 27  2  0  0  0  0
 28 29  1  0  0  0  0
  3 30  1  0  0  0  0
  5 31  1  0  0  0  0
  7 32  1  0  0  0  0
  9 33  1  0  0  0  0
 10 34  1  0  0  0  0
 13 35  1  0  0  0  0
 14 36  1  0  0  0  0
 15 37  1  0  0  0  0
 18 38  1  0  0  0  0
 19 39  1  0  0  0  0
 21 40  1  0  0  0  0
 21 41  1  0  0  0  0
 21 42  1  0  0  0  0
 25 43  1  0  0  0  0
 26 44  1  0  0  0  0
 27 45  1  0  0  0  0
 29 46  1  0  0  0  0
 29 47  1  0  0  0  0
 29 48  1  0  0  0  0
M  END
> <ID>
30

> <IC50[uM]>
0.181

$$$$
30
  -OEChem-05192314313D
 Structure written by MMmdl.
 48 52  0     0  0  0  0  0  0999 V2000
   90.3246   48.2158  265.9106 N   0  0  0  0  0  0  0  0  0  0  0  0
   91.6410   48.3483  266.3682 C   0  0  0  0  0  0  0  0  0  0  0  0
   91.9415   49.5214  267.0589 C   0  0  0  0  0  0  0  0  0  0  0  0
   93.1916   49.7577  267.6267 C   0  0  0  0  0  0  0  0  0  0  0  0
   94.2090   48.7633  267.4940 C   0  0  0  0  0  0  0  0  0  0  0  0
   93.8920   47.5406  266.8142 C   0  0  0  0  0  0  0  0  0  0  0  0
   92.6020   47.3493  266.2505 C   0  0  0  0  0  0  0  0  0  0  0  0
   93.3887   51.0078  268.4028 C   0  0  0  0  0  0  0  0  0  0  0  0
   94.3856   51.9191  268.0632 C   0  0  0  0  0  0  0  0  0  0  0  0
   94.5800   53.0959  268.7844 C   0  0  0  0  0  0  0  0  0  0  0  0
   93.7588   53.3624  269.8875 C   0  0  0  0  0  0  0  0  0  0  0  0
   92.7502   52.4132  270.2359 C   0  0  0  0  0  0  0  0  0  0  0  0
   92.5445   51.2472  269.4912 C   0  0  0  0  0  0  0  0  0  0  0  0
   93.6590   54.4296  270.8315 C   0  0  0  0  0  0  0  0  0  0  0  0
   92.6607   54.0993  271.7192 C   0  0  0  0  0  0  0  0  0  0  0  0
   92.1109   52.8876  271.3697 N   0  0  0  0  0  0  0  0  0  0  0  0
   94.8307   46.5542  266.6953 N   0  0  0  0  0  0  0  0  0  0  0  0
   96.0576   46.7723  267.2282 C   0  0  0  0  0  0  0  0  0  0  0  0
   96.3687   47.9683  267.8707 C   0  0  0  0  0  0  0  0  0  0  0  0
   95.4525   48.9489  268.0267 N   0  0  0  0  0  0  0  0  0  0  0  0
   91.0015   52.2516  272.0349 C   0  0  0  0  0  0  0  0  0  0  0  0
   89.6285   47.2718  265.1312 C   0  0  0  0  0  0  0  0  0  0  0  0
   90.0658   46.7271  263.9099 C   0  0  0  0  0  0  0  0  0  0  0  0
   89.2897   45.8581  263.1888 N   0  0  0  0  0  0  0  0  0  0  0  0
   88.0679   45.5254  263.6665 C   0  0  0  0  0  0  0  0  0  0  0  0
   87.5646   46.0381  264.8536 C   0  0  0  0  0  0  0  0  0  0  0  0
   88.3537   46.9259  265.5834 C   0  0  0  0  0  0  0  0  0  0  0  0
   91.2814   47.0908  263.3524 O   0  0  0  0  0  0  0  0  0  0  0  0
   91.5717   46.7276  261.9951 C   0  0  0  0  0  0  0  0  0  0  0  0
   91.1755   50.2763  267.1577 H   0  0  0  0  0  0  0  0  0  0  0  0
   92.3681   46.4311  265.7321 H   0  0  0  0  0  0  0  0  0  0  0  0
   95.0250   51.7084  267.2187 H   0  0  0  0  0  0  0  0  0  0  0  0
   95.3533   53.7928  268.4966 H   0  0  0  0  0  0  0  0  0  0  0  0
   91.7580   50.5534  269.7490 H   0  0  0  0  0  0  0  0  0  0  0  0
   94.2564   55.3292  270.8460 H   0  0  0  0  0  0  0  0  0  0  0  0
   92.3550   54.7004  272.5628 H   0  0  0  0  0  0  0  0  0  0  0  0
   96.8106   46.0018  267.1530 H   0  0  0  0  0  0  0  0  0  0  0  0
   96.7074   47.6976  268.8816 H   0  0  0  0  0  0  0  0  0  0  0  0
   97.2048   48.4122  267.3105 H   0  0  0  0  0  0  0  0  0  0  0  0
   90.7014   52.8534  272.9054 H   0  0  0  0  0  0  0  0  0  0  0  0
   90.1549   52.1682  271.3376 H   0  0  0  0  0  0  0  0  0  0  0  0
   91.3014   51.2475  272.3693 H   0  0  0  0  0  0  0  0  0  0  0  0
   87.4608   44.8336  263.1015 H   0  0  0  0  0  0  0  0  0  0  0  0
   86.5830   45.7556  265.2045 H   0  0  0  0  0  0  0  0  0  0  0  0
   87.9770   47.3482  266.5032 H   0  0  0  0  0  0  0  0  0  0  0  0
   92.5719   47.0953  261.7225 H   0  0  0  0  0  0  0  0  0  0  0  0
   91.5438   45.6325  261.8947 H   0  0  0  0  0  0  0  0  0  0  0  0
   90.8216   47.1763  261.3271 H   0  0  0  0  0  0  0  0  0  0  0  0
  1  2  2  0  0  0  0
  1 22  1  0  0  0  0
  2  3  1  0  0  0  0
  2  7  1  0  0  0  0
  3  4  2  0  0  0  0
  4  5  1  0  0  0  0
  4  8  1  0  0  0  0
  5 20  2  0  0  0  0
  5  6  1  0  0  0  0
  6  7  2  0  0  0  0
  6 17  1  0  0  0  0
  8  9  2  0  0  0  0
  8 13  1  0  0  0  0
  9 10  1  0  0  0  0
 10 11  2  0  0  0  0
 11 14  1  0  0  0  0
 11 12  1  0  0  0  0
 12 13  2  0  0  0  0
 12 16  1  0  0  0  0
 14 15  2  0  0  0  0
 15 16  1  0  0  0  0
 16 21  1  0  0  0  0
 17 18  2  0  0  0  0
 18 19  1  0  0  0  0
 19 20  1  0  0  0  0
 22 23  2  0  0  0  0
 22 27  1  0  0  0  0
 23 24  1  0  0  0  0
 23 28  1  0  0  0  0
 24 25  2  0  0  0  0
 25 26  1  0  0  0  0
 26 27  2  0  0  0  0
 28 29  1  0  0  0  0
  3 30  1  0  0  0  0
  7 31  1  0  0  0  0
  9 32  1  0  0  0  0
 10 33  1  0  0  0  0
 13 34  1  0  0  0  0
 14 35  1  0  0  0  0
 15 36  1  0  0  0  0
 18 37  1  0  0  0  0
 19 38  1  0  0  0  0
 19 39  1  0  0  0  0
 21 40  1  0  0  0  0
 21 41  1  0  0  0  0
 21 42  1  0  0  0  0
 25 43  1  0  0  0  0
 26 44  1  0  0  0  0
 27 45  1  0  0  0  0
 29 46  1  0  0  0  0
 29 47  1  0  0  0  0
 29 48  1  0  0  0  0
M  END
> <ID>
30

> <IC50[uM]>
0.181

$$$$
