31
  -OEChem-05192314313D
 Structure written by MMmdl.
 48 52  0     0  0  0  0  0  0999 V2000
   90.2734   48.1373  266.3119 N   0  0  0  0  0  0  0  0  0  0  0  0
   91.6117   48.3398  266.6726 C   0  0  0  0  0  0  0  0  0  0  0  0
   91.9712   49.5358  267.2869 C   0  0  0  0  0  0  0  0  0  0  0  0
   93.2859   49.8045  267.6861 C   0  0  0  0  0  0  0  0  0  0  0  0
   92.5671   47.3483  266.4685 C   0  0  0  0  0  0  0  0  0  0  0  0
   93.8944   47.5452  266.9039 C   0  0  0  0  0  0  0  0  0  0  0  0
   94.2720   48.7853  267.5093 C   0  0  0  0  0  0  0  0  0  0  0  0
   95.5613   48.9672  267.9330 N   0  0  0  0  0  0  0  0  0  0  0  0
   96.4474   47.9577  267.7413 C   0  0  0  0  0  0  0  0  0  0  0  0
   96.0603   46.7471  267.1804 C   0  0  0  0  0  0  0  0  0  0  0  0
   94.7948   46.5347  266.7539 N   0  0  0  0  0  0  0  0  0  0  0  0
   93.5898   51.1081  268.3324 C   0  0  0  0  0  0  0  0  0  0  0  0
   94.5658   51.9591  267.8021 C   0  0  0  0  0  0  0  0  0  0  0  0
   94.8582   53.1934  268.3840 C   0  0  0  0  0  0  0  0  0  0  0  0
   92.8861   51.4597  269.4865 C   0  0  0  0  0  0  0  0  0  0  0  0
   92.7260   53.2479  271.2608 N   0  0  0  0  0  0  0  0  0  0  0  0
   93.1982   52.6767  270.0937 C   0  0  0  0  0  0  0  0  0  0  0  0
   94.1524   53.5738  269.5353 C   0  0  0  0  0  0  0  0  0  0  0  0
   94.1575   54.7293  270.3755 C   0  0  0  0  0  0  0  0  0  0  0  0
   93.3428   54.4594  271.4429 C   0  0  0  0  0  0  0  0  0  0  0  0
   91.7409   52.6665  272.1542 C   0  0  0  0  0  0  0  0  0  0  0  0
   90.4241   47.1199  264.0974 C   0  0  0  0  0  0  0  0  0  0  0  0
   89.7187   47.3508  265.2862 C   0  0  0  0  0  0  0  0  0  0  0  0
   88.4205   46.8190  265.4083 C   0  0  0  0  0  0  0  0  0  0  0  0
   87.8923   46.0966  264.3222 C   0  0  0  0  0  0  0  0  0  0  0  0
   88.6643   45.9320  263.1722 C   0  0  0  0  0  0  0  0  0  0  0  0
   89.9182   46.4295  263.0460 N   0  0  0  0  0  0  0  0  0  0  0  0
   87.7289   47.0297  266.5905 O   0  0  0  0  0  0  0  0  0  0  0  0
   86.6417   46.1641  266.9159 C   0  0  0  0  0  0  0  0  0  0  0  0
   89.6072   48.6296  266.8720 H   0  0  0  0  0  0  0  0  0  0  0  0
   91.2101   50.2819  267.4615 H   0  0  0  0  0  0  0  0  0  0  0  0
   92.2919   46.4272  265.9763 H   0  0  0  0  0  0  0  0  0  0  0  0
   97.4781   48.0986  268.0316 H   0  0  0  0  0  0  0  0  0  0  0  0
   96.7885   45.9556  267.0825 H   0  0  0  0  0  0  0  0  0  0  0  0
   95.1071   51.6526  266.9192 H   0  0  0  0  0  0  0  0  0  0  0  0
   95.6104   53.8408  267.9579 H   0  0  0  0  0  0  0  0  0  0  0  0
   92.1255   50.8111  269.8955 H   0  0  0  0  0  0  0  0  0  0  0  0
   94.7025   55.6453  270.2013 H   0  0  0  0  0  0  0  0  0  0  0  0
   93.2066   55.1035  272.2990 H   0  0  0  0  0  0  0  0  0  0  0  0
   91.5635   53.3484  272.9989 H   0  0  0  0  0  0  0  0  0  0  0  0
   90.7995   52.5071  271.6079 H   0  0  0  0  0  0  0  0  0  0  0  0
   92.1128   51.7030  272.5328 H   0  0  0  0  0  0  0  0  0  0  0  0
   91.4263   47.5138  264.0143 H   0  0  0  0  0  0  0  0  0  0  0  0
   86.8999   45.6742  264.3785 H   0  0  0  0  0  0  0  0  0  0  0  0
   88.2428   45.3823  262.3436 H   0  0  0  0  0  0  0  0  0  0  0  0
   86.2062   46.4678  267.8793 H   0  0  0  0  0  0  0  0  0  0  0  0
   85.8744   46.2282  266.1303 H   0  0  0  0  0  0  0  0  0  0  0  0
   87.0065   45.1289  266.9886 H   0  0  0  0  0  0  0  0  0  0  0  0
  1  2  1  0  0  0  0
  1 23  1  0  0  0  0
  2  3  2  0  0  0  0
  2  5  1  0  0  0  0
  3  4  1  0  0  0  0
  4  7  2  0  0  0  0
  4 12  1  0  0  0  0
  5  6  2  0  0  0  0
  6  7  1  0  0  0  0
  6 11  1  0  0  0  0
  7  8  1  0  0  0  0
  8  9  2  0  0  0  0
  9 10  1  0  0  0  0
 10 11  2  0  0  0  0
 12 13  2  0  0  0  0
 12 15  1  0  0  0  0
 13 14  1  0  0  0  0
 14 18  2  0  0  0  0
 15 17  2  0  0  0  0
 16 17  1  0  0  0  0
 16 20  1  0  0  0  0
 16 21  1  0  0  0  0
 17 18  1  0  0  0  0
 18 19  1  0  0  0  0
 19 20  2  0  0  0  0
 22 23  2  0  0  0  0
 22 27  1  0  0  0  0
 23 24  1  0  0  0  0
 24 25  2  0  0  0  0
 24 28  1  0  0  0  0
 25 26  1  0  0  0  0
 26 27  2  0  0  0  0
 28 29  1  0  0  0  0
  1 30  1  0  0  0  0
  3 31  1  0  0  0  0
  5 32  1  0  0  0  0
  9 33  1  0  0  0  0
 10 34  1  0  0  0  0
 13 35  1  0  0  0  0
 14 36  1  0  0  0  0
 15 37  1  0  0  0  0
 19 38  1  0  0  0  0
 20 39  1  0  0  0  0
 21 40  1  0  0  0  0
 21 41  1  0  0  0  0
 21 42  1  0  0  0  0
 22 43  1  0  0  0  0
 25 44  1  0  0  0  0
 26 45  1  0  0  0  0
 29 46  1  0  0  0  0
 29 47  1  0  0  0  0
 29 48  1  0  0  0  0
M  END
> <ID>
31

> <IC50[uM]>
0.157

$$$$
31
  -OEChem-05192314313D
 Structure written by MMmdl.
 48 52  0     0  0  0  0  0  0999 V2000
   90.2734   48.1373  266.3119 N   0  0  0  0  0  0  0  0  0  0  0  0
   91.6117   48.3398  266.6726 C   0  0  0  0  0  0  0  0  0  0  0  0
   91.9712   49.5358  267.2869 C   0  0  0  0  0  0  0  0  0  0  0  0
   93.2859   49.8045  267.6861 C   0  0  0  0  0  0  0  0  0  0  0  0
   92.5671   47.3483  266.4685 C   0  0  0  0  0  0  0  0  0  0  0  0
   93.8944   47.5452  266.9039 C   0  0  0  0  0  0  0  0  0  0  0  0
   94.2720   48.7853  267.5093 C   0  0  0  0  0  0  0  0  0  0  0  0
   95.5613   48.9672  267.9330 N   0  0  0  0  0  0  0  0  0  0  0  0
   96.4474   47.9577  267.7413 C   0  0  0  0  0  0  0  0  0  0  0  0
   96.0603   46.7471  267.1804 C   0  0  0  0  0  0  0  0  0  0  0  0
   94.7948   46.5347  266.7539 N   0  0  0  0  0  0  0  0  0  0  0  0
   93.5898   51.1081  268.3324 C   0  0  0  0  0  0  0  0  0  0  0  0
   94.5658   51.9591  267.8021 C   0  0  0  0  0  0  0  0  0  0  0  0
   94.8582   53.1934  268.3840 C   0  0  0  0  0  0  0  0  0  0  0  0
   92.8861   51.4597  269.4865 C   0  0  0  0  0  0  0  0  0  0  0  0
   92.7260   53.2479  271.2608 N   0  0  0  0  0  0  0  0  0  0  0  0
   93.1982   52.6767  270.0937 C   0  0  0  0  0  0  0  0  0  0  0  0
   94.1524   53.5738  269.5353 C   0  0  0  0  0  0  0  0  0  0  0  0
   94.1575   54.7293  270.3755 C   0  0  0  0  0  0  0  0  0  0  0  0
   93.3428   54.4594  271.4429 C   0  0  0  0  0  0  0  0  0  0  0  0
   91.7409   52.6665  272.1542 C   0  0  0  0  0  0  0  0  0  0  0  0
   90.4241   47.1199  264.0974 C   0  0  0  0  0  0  0  0  0  0  0  0
   89.7187   47.3508  265.2862 C   0  0  0  0  0  0  0  0  0  0  0  0
   88.4205   46.8190  265.4083 C   0  0  0  0  0  0  0  0  0  0  0  0
   87.8923   46.0966  264.3222 C   0  0  0  0  0  0  0  0  0  0  0  0
   88.6643   45.9320  263.1722 C   0  0  0  0  0  0  0  0  0  0  0  0
   89.9182   46.4295  263.0460 N   0  0  0  0  0  0  0  0  0  0  0  0
   87.7289   47.0297  266.5905 O   0  0  0  0  0  0  0  0  0  0  0  0
   86.6417   46.1641  266.9159 C   0  0  0  0  0  0  0  0  0  0  0  0
   91.2101   50.2819  267.4615 H   0  0  0  0  0  0  0  0  0  0  0  0
   92.2919   46.4272  265.9763 H   0  0  0  0  0  0  0  0  0  0  0  0
   97.4781   48.0986  268.0316 H   0  0  0  0  0  0  0  0  0  0  0  0
   96.7885   45.9556  267.0825 H   0  0  0  0  0  0  0  0  0  0  0  0
   94.5287   45.6634  266.3416 H   0  0  0  0  0  0  0  0  0  0  0  0
   95.1071   51.6526  266.9192 H   0  0  0  0  0  0  0  0  0  0  0  0
   95.6104   53.8408  267.9579 H   0  0  0  0  0  0  0  0  0  0  0  0
   92.1255   50.8111  269.8955 H   0  0  0  0  0  0  0  0  0  0  0  0
   94.7025   55.6453  270.2013 H   0  0  0  0  0  0  0  0  0  0  0  0
   93.2066   55.1035  272.2990 H   0  0  0  0  0  0  0  0  0  0  0  0
   91.5635   53.3484  272.9989 H   0  0  0  0  0  0  0  0  0  0  0  0
   90.7995   52.5071  271.6079 H   0  0  0  0  0  0  0  0  0  0  0  0
   92.1128   51.7030  272.5328 H   0  0  0  0  0  0  0  0  0  0  0  0
   91.4263   47.5138  264.0143 H   0  0  0  0  0  0  0  0  0  0  0  0
   86.8999   45.6742  264.3785 H   0  0  0  0  0  0  0  0  0  0  0  0
   88.2428   45.3823  262.3436 H   0  0  0  0  0  0  0  0  0  0  0  0
   86.2062   46.4678  267.8793 H   0  0  0  0  0  0  0  0  0  0  0  0
   85.8744   46.2282  266.1303 H   0  0  0  0  0  0  0  0  0  0  0  0
   87.0065   45.1289  266.9886 H   0  0  0  0  0  0  0  0  0  0  0  0
  1  2  2  0  0  0  0
  1 23  1  0  0  0  0
  2  3  1  0  0  0  0
  2  5  1  0  0  0  0
  3  4  2  0  0  0  0
  4  7  1  0  0  0  0
  4 12  1  0  0  0  0
  5  6  2  0  0  0  0
  6  7  1  0  0  0  0
  6 11  1  0  0  0  0
  7  8  2  0  0  0  0
  8  9  1  0  0  0  0
  9 10  2  0  0  0  0
 10 11  1  0  0  0  0
 12 13  2  0  0  0  0
 12 15  1  0  0  0  0
 13 14  1  0  0  0  0
 14 18  2  0  0  0  0
 15 17  2  0  0  0  0
 16 17  1  0  0  0  0
 16 20  1  0  0  0  0
 16 21  1  0  0  0  0
 17 18  1  0  0  0  0
 18 19  1  0  0  0  0
 19 20  2  0  0  0  0
 22 23  2  0  0  0  0
 22 27  1  0  0  0  0
 23 24  1  0  0  0  0
 24 25  2  0  0  0  0
 24 28  1  0  0  0  0
 25 26  1  0  0  0  0
 26 27  2  0  0  0  0
 28 29  1  0  0  0  0
  3 30  1  0  0  0  0
  5 31  1  0  0  0  0
  9 32  1  0  0  0  0
 10 33  1  0  0  0  0
 11 34  1  0  0  0  0
 13 35  1  0  0  0  0
 14 36  1  0  0  0  0
 15 37  1  0  0  0  0
 19 38  1  0  0  0  0
 20 39  1  0  0  0  0
 21 40  1  0  0  0  0
 21 41  1  0  0  0  0
 21 42  1  0  0  0  0
 22 43  1  0  0  0  0
 25 44  1  0  0  0  0
 26 45  1  0  0  0  0
 29 46  1  0  0  0  0
 29 47  1  0  0  0  0
 29 48  1  0  0  0  0
M  END
> <ID>
31

> <IC50[uM]>
0.157

$$$$
31
  -OEChem-05192314313D
 Structure written by MMmdl.
 48 52  0     0  0  0  0  0  0999 V2000
   90.2734   48.1373  266.3119 N   0  0  0  0  0  0  0  0  0  0  0  0
   91.6117   48.3398  266.6726 C   0  0  0  0  0  0  0  0  0  0  0  0
   91.9712   49.5358  267.2869 C   0  0  0  0  0  0  0  0  0  0  0  0
   93.2859   49.8045  267.6861 C   0  0  0  0  0  0  0  0  0  0  0  0
   92.5671   47.3483  266.4685 C   0  0  0  0  0  0  0  0  0  0  0  0
   93.8944   47.5452  266.9039 C   0  0  0  0  0  0  0  0  0  0  0  0
   94.2720   48.7853  267.5093 C   0  0  0  0  0  0  0  0  0  0  0  0
   95.5613   48.9672  267.9330 N   0  0  0  0  0  0  0  0  0  0  0  0
   96.4474   47.9577  267.7413 C   0  0  0  0  0  0  0  0  0  0  0  0
   96.0603   46.7471  267.1804 C   0  0  0  0  0  0  0  0  0  0  0  0
   94.7948   46.5347  266.7539 N   0  0  0  0  0  0  0  0  0  0  0  0
   93.5898   51.1081  268.3324 C   0  0  0  0  0  0  0  0  0  0  0  0
   94.5658   51.9591  267.8021 C   0  0  0  0  0  0  0  0  0  0  0  0
   94.8582   53.1934  268.3840 C   0  0  0  0  0  0  0  0  0  0  0  0
   92.8861   51.4597  269.4865 C   0  0  0  0  0  0  0  0  0  0  0  0
   92.7260   53.2479  271.2608 N   0  0  0  0  0  0  0  0  0  0  0  0
   93.1982   52.6767  270.0937 C   0  0  0  0  0  0  0  0  0  0  0  0
   94.1524   53.5738  269.5353 C   0  0  0  0  0  0  0  0  0  0  0  0
   94.1575   54.7293  270.3755 C   0  0  0  0  0  0  0  0  0  0  0  0
   93.3428   54.4594  271.4429 C   0  0  0  0  0  0  0  0  0  0  0  0
   91.7409   52.6665  272.1542 C   0  0  0  0  0  0  0  0  0  0  0  0
   90.4241   47.1199  264.0974 C   0  0  0  0  0  0  0  0  0  0  0  0
   89.7187   47.3508  265.2862 C   0  0  0  0  0  0  0  0  0  0  0  0
   88.4205   46.8190  265.4083 C   0  0  0  0  0  0  0  0  0  0  0  0
   87.8923   46.0966  264.3222 C   0  0  0  0  0  0  0  0  0  0  0  0
   88.6643   45.9320  263.1722 C   0  0  0  0  0  0  0  0  0  0  0  0
   89.9182   46.4295  263.0460 N   0  0  0  0  0  0  0  0  0  0  0  0
   87.7289   47.0297  266.5905 O   0  0  0  0  0  0  0  0  0  0  0  0
   86.6417   46.1641  266.9159 C   0  0  0  0  0  0  0  0  0  0  0  0
   91.2101   50.2819  267.4615 H   0  0  0  0  0  0  0  0  0  0  0  0
   92.1984   46.4436  266.9741 H   0  0  0  0  0  0  0  0  0  0  0  0
   92.6122   47.1697  265.3840 H   0  0  0  0  0  0  0  0  0  0  0  0
   97.4781   48.0986  268.0316 H   0  0  0  0  0  0  0  0  0  0  0  0
   96.7885   45.9556  267.0825 H   0  0  0  0  0  0  0  0  0  0  0  0
   95.1071   51.6526  266.9192 H   0  0  0  0  0  0  0  0  0  0  0  0
   95.6104   53.8408  267.9579 H   0  0  0  0  0  0  0  0  0  0  0  0
   92.1255   50.8111  269.8955 H   0  0  0  0  0  0  0  0  0  0  0  0
   94.7025   55.6453  270.2013 H   0  0  0  0  0  0  0  0  0  0  0  0
   93.2066   55.1035  272.2990 H   0  0  0  0  0  0  0  0  0  0  0  0
   91.5635   53.3484  272.9989 H   0  0  0  0  0  0  0  0  0  0  0  0
   90.7995   52.5071  271.6079 H   0  0  0  0  0  0  0  0  0  0  0  0
   92.1128   51.7030  272.5328 H   0  0  0  0  0  0  0  0  0  0  0  0
   91.4263   47.5138  264.0143 H   0  0  0  0  0  0  0  0  0  0  0  0
   86.8999   45.6742  264.3785 H   0  0  0  0  0  0  0  0  0  0  0  0
   88.2428   45.3823  262.3436 H   0  0  0  0  0  0  0  0  0  0  0  0
   86.2062   46.4678  267.8793 H   0  0  0  0  0  0  0  0  0  0  0  0
   85.8744   46.2282  266.1303 H   0  0  0  0  0  0  0  0  0  0  0  0
   87.0065   45.1289  266.9886 H   0  0  0  0  0  0  0  0  0  0  0  0
  1  2  2  0  0  0  0
  1 23  1  0  0  0  0
  2  3  1  0  0  0  0
  2  5  1  0  0  0  0
  3  4  2  0  0  0  0
  4  7  1  0  0  0  0
  4 12  1  0  0  0  0
  5  6  1  0  0  0  0
  6  7  2  0  0  0  0
  6 11  1  0  0  0  0
  7  8  1  0  0  0  0
  8  9  2  0  0  0  0
  9 10  1  0  0  0  0
 10 11  2  0  0  0  0
 12 13  2  0  0  0  0
 12 15  1  0  0  0  0
 13 14  1  0  0  0  0
 14 18  2  0  0  0  0
 15 17  2  0  0  0  0
 16 17  1  0  0  0  0
 16 20  1  0  0  0  0
 16 21  1  0  0  0  0
 17 18  1  0  0  0  0
 18 19  1  0  0  0  0
 19 20  2  0  0  0  0
 22 23  2  0  0  0  0
 22 27  1  0  0  0  0
 23 24  1  0  0  0  0
 24 25  2  0  0  0  0
 24 28  1  0  0  0  0
 25 26  1  0  0  0  0
 26 27  2  0  0  0  0
 28 29  1  0  0  0  0
  3 30  1  0  0  0  0
  5 31  1  0  0  0  0
  5 32  1  0  0  0  0
  9 33  1  0  0  0  0
 10 34  1  0  0  0  0
 13 35  1  0  0  0  0
 14 36  1  0  0  0  0
 15 37  1  0  0  0  0
 19 38  1  0  0  0  0
 20 39  1  0  0  0  0
 21 40  1  0  0  0  0
 21 41  1  0  0  0  0
 21 42  1  0  0  0  0
 22 43  1  0  0  0  0
 25 44  1  0  0  0  0
 26 45  1  0  0  0  0
 29 46  1  0  0  0  0
 29 47  1  0  0  0  0
 29 48  1  0  0  0  0
M  END
> <ID>
31

> <IC50[uM]>
0.157

$$$$
31
  -OEChem-05192314313D
 Structure written by MMmdl.
 48 52  0     0  0  0  0  0  0999 V2000
   90.2734   48.1373  266.3119 N   0  0  0  0  0  0  0  0  0  0  0  0
   91.6117   48.3398  266.6726 C   0  0  0  0  0  0  0  0  0  0  0  0
   91.9712   49.5358  267.2869 C   0  0  0  0  0  0  0  0  0  0  0  0
   93.2859   49.8045  267.6861 C   0  0  0  0  0  0  0  0  0  0  0  0
   92.5671   47.3483  266.4685 C   0  0  0  0  0  0  0  0  0  0  0  0
   93.8944   47.5452  266.9039 C   0  0  0  0  0  0  0  0  0  0  0  0
   94.2720   48.7853  267.5093 C   0  0  0  0  0  0  0  0  0  0  0  0
   95.5613   48.9672  267.9330 N   0  0  0  0  0  0  0  0  0  0  0  0
   96.4474   47.9577  267.7413 C   0  0  0  0  0  0  0  0  0  0  0  0
   96.0603   46.7471  267.1804 C   0  0  0  0  0  0  0  0  0  0  0  0
   94.7948   46.5347  266.7539 N   0  0  0  0  0  0  0  0  0  0  0  0
   93.5898   51.1081  268.3324 C   0  0  0  0  0  0  0  0  0  0  0  0
   94.5658   51.9591  267.8021 C   0  0  0  0  0  0  0  0  0  0  0  0
   94.8582   53.1934  268.3840 C   0  0  0  0  0  0  0  0  0  0  0  0
   92.8861   51.4597  269.4865 C   0  0  0  0  0  0  0  0  0  0  0  0
   92.7260   53.2479  271.2608 N   0  0  0  0  0  0  0  0  0  0  0  0
   93.1982   52.6767  270.0937 C   0  0  0  0  0  0  0  0  0  0  0  0
   94.1524   53.5738  269.5353 C   0  0  0  0  0  0  0  0  0  0  0  0
   94.1575   54.7293  270.3755 C   0  0  0  0  0  0  0  0  0  0  0  0
   93.3428   54.4594  271.4429 C   0  0  0  0  0  0  0  0  0  0  0  0
   91.7409   52.6665  272.1542 C   0  0  0  0  0  0  0  0  0  0  0  0
   90.4241   47.1199  264.0974 C   0  0  0  0  0  0  0  0  0  0  0  0
   89.7187   47.3508  265.2862 C   0  0  0  0  0  0  0  0  0  0  0  0
   88.4205   46.8190  265.4083 C   0  0  0  0  0  0  0  0  0  0  0  0
   87.8923   46.0966  264.3222 C   0  0  0  0  0  0  0  0  0  0  0  0
   88.6643   45.9320  263.1722 C   0  0  0  0  0  0  0  0  0  0  0  0
   89.9182   46.4295  263.0460 N   0  0  0  0  0  0  0  0  0  0  0  0
   87.7289   47.0297  266.5905 O   0  0  0  0  0  0  0  0  0  0  0  0
   86.6417   46.1641  266.9159 C   0  0  0  0  0  0  0  0  0  0  0  0
   91.6939   50.3364  266.5854 H   0  0  0  0  0  0  0  0  0  0  0  0
   91.3534   49.6127  268.1938 H   0  0  0  0  0  0  0  0  0  0  0  0
   92.2919   46.4272  265.9763 H   0  0  0  0  0  0  0  0  0  0  0  0
   97.4781   48.0986  268.0316 H   0  0  0  0  0  0  0  0  0  0  0  0
   96.7885   45.9556  267.0825 H   0  0  0  0  0  0  0  0  0  0  0  0
   95.1071   51.6526  266.9192 H   0  0  0  0  0  0  0  0  0  0  0  0
   95.6104   53.8408  267.9579 H   0  0  0  0  0  0  0  0  0  0  0  0
   92.1255   50.8111  269.8955 H   0  0  0  0  0  0  0  0  0  0  0  0
   94.7025   55.6453  270.2013 H   0  0  0  0  0  0  0  0  0  0  0  0
   93.2066   55.1035  272.2990 H   0  0  0  0  0  0  0  0  0  0  0  0
   91.5635   53.3484  272.9989 H   0  0  0  0  0  0  0  0  0  0  0  0
   90.7995   52.5071  271.6079 H   0  0  0  0  0  0  0  0  0  0  0  0
   92.1128   51.7030  272.5328 H   0  0  0  0  0  0  0  0  0  0  0  0
   91.4263   47.5138  264.0143 H   0  0  0  0  0  0  0  0  0  0  0  0
   86.8999   45.6742  264.3785 H   0  0  0  0  0  0  0  0  0  0  0  0
   88.2428   45.3823  262.3436 H   0  0  0  0  0  0  0  0  0  0  0  0
   86.2062   46.4678  267.8793 H   0  0  0  0  0  0  0  0  0  0  0  0
   85.8744   46.2282  266.1303 H   0  0  0  0  0  0  0  0  0  0  0  0
   87.0065   45.1289  266.9886 H   0  0  0  0  0  0  0  0  0  0  0  0
  1  2  2  0  0  0  0
  1 23  1  0  0  0  0
  2  3  1  0  0  0  0
  2  5  1  0  0  0  0
  3  4  1  0  0  0  0
  4  7  2  0  0  0  0
  4 12  1  0  0  0  0
  5  6  2  0  0  0  0
  6  7  1  0  0  0  0
  6 11  1  0  0  0  0
  7  8  1  0  0  0  0
  8  9  2  0  0  0  0
  9 10  1  0  0  0  0
 10 11  2  0  0  0  0
 12 13  2  0  0  0  0
 12 15  1  0  0  0  0
 13 14  1  0  0  0  0
 14 18  2  0  0  0  0
 15 17  2  0  0  0  0
 16 17  1  0  0  0  0
 16 20  1  0  0  0  0
 16 21  1  0  0  0  0
 17 18  1  0  0  0  0
 18 19  1  0  0  0  0
 19 20  2  0  0  0  0
 22 23  2  0  0  0  0
 22 27  1  0  0  0  0
 23 24  1  0  0  0  0
 24 25  2  0  0  0  0
 24 28  1  0  0  0  0
 25 26  1  0  0  0  0
 26 27  2  0  0  0  0
 28 29  1  0  0  0  0
  3 30  1  0  0  0  0
  3 31  1  0  0  0  0
  5 32  1  0  0  0  0
  9 33  1  0  0  0  0
 10 34  1  0  0  0  0
 13 35  1  0  0  0  0
 14 36  1  0  0  0  0
 15 37  1  0  0  0  0
 19 38  1  0  0  0  0
 20 39  1  0  0  0  0
 21 40  1  0  0  0  0
 21 41  1  0  0  0  0
 21 42  1  0  0  0  0
 22 43  1  0  0  0  0
 25 44  1  0  0  0  0
 26 45  1  0  0  0  0
 29 46  1  0  0  0  0
 29 47  1  0  0  0  0
 29 48  1  0  0  0  0
M  END
> <ID>
31

> <IC50[uM]>
0.157

$$$$
31
  -OEChem-05192314313D
 Structure written by MMmdl.
 48 52  0     1  0  0  0  0  0999 V2000
   90.2734   48.1373  266.3119 N   0  0  0  0  0  0  0  0  0  0  0  0
   91.6117   48.3398  266.6726 C   0  0  0  0  0  0  0  0  0  0  0  0
   91.9712   49.5358  267.2869 C   0  0  0  0  0  0  0  0  0  0  0  0
   93.2859   49.8045  267.6861 C   0  0  0  0  0  0  0  0  0  0  0  0
   92.5671   47.3483  266.4685 C   0  0  0  0  0  0  0  0  0  0  0  0
   93.8944   47.5452  266.9039 C   0  0  0  0  0  0  0  0  0  0  0  0
   94.2720   48.7853  267.5093 C   0  0  0  0  0  0  0  0  0  0  0  0
   95.5613   48.9672  267.9330 N   0  0  0  0  0  0  0  0  0  0  0  0
   96.4474   47.9577  267.7413 C   0  0  0  0  0  0  0  0  0  0  0  0
   96.0603   46.7471  267.1804 C   0  0  0  0  0  0  0  0  0  0  0  0
   94.7948   46.5347  266.7539 N   0  0  0  0  0  0  0  0  0  0  0  0
   93.5898   51.1081  268.3324 C   0  0  0  0  0  0  0  0  0  0  0  0
   94.5658   51.9591  267.8021 C   0  0  0  0  0  0  0  0  0  0  0  0
   94.8582   53.1934  268.3840 C   0  0  0  0  0  0  0  0  0  0  0  0
   92.8861   51.4597  269.4865 C   0  0  0  0  0  0  0  0  0  0  0  0
   92.7260   53.2479  271.2608 N   0  0  0  0  0  0  0  0  0  0  0  0
   93.1982   52.6767  270.0937 C   0  0  0  0  0  0  0  0  0  0  0  0
   94.1524   53.5738  269.5353 C   0  0  0  0  0  0  0  0  0  0  0  0
   94.1575   54.7293  270.3755 C   0  0  0  0  0  0  0  0  0  0  0  0
   93.3428   54.4594  271.4429 C   0  0  0  0  0  0  0  0  0  0  0  0
   91.7409   52.6665  272.1542 C   0  0  0  0  0  0  0  0  0  0  0  0
   90.4241   47.1199  264.0974 C   0  0  0  0  0  0  0  0  0  0  0  0
   89.7187   47.3508  265.2862 C   0  0  0  0  0  0  0  0  0  0  0  0
   88.4205   46.8190  265.4083 C   0  0  3  0  0  0  0  0  0  0  0  0
   87.8923   46.0966  264.3222 C   0  0  0  0  0  0  0  0  0  0  0  0
   88.6643   45.9320  263.1722 C   0  0  0  0  0  0  0  0  0  0  0  0
   89.9182   46.4295  263.0460 N   0  0  0  0  0  0  0  0  0  0  0  0
   87.7289   47.0297  266.5905 O   0  0  0  0  0  0  0  0  0  0  0  0
   86.6417   46.1641  266.9159 C   0  0  0  0  0  0  0  0  0  0  0  0
   91.2101   50.2819  267.4615 H   0  0  0  0  0  0  0  0  0  0  0  0
   92.2919   46.4272  265.9763 H   0  0  0  0  0  0  0  0  0  0  0  0
   97.4781   48.0986  268.0316 H   0  0  0  0  0  0  0  0  0  0  0  0
   96.7885   45.9556  267.0825 H   0  0  0  0  0  0  0  0  0  0  0  0
   95.1071   51.6526  266.9192 H   0  0  0  0  0  0  0  0  0  0  0  0
   95.6104   53.8408  267.9579 H   0  0  0  0  0  0  0  0  0  0  0  0
   92.1255   50.8111  269.8955 H   0  0  0  0  0  0  0  0  0  0  0  0
   94.7025   55.6453  270.2013 H   0  0  0  0  0  0  0  0  0  0  0  0
   93.2066   55.1035  272.2990 H   0  0  0  0  0  0  0  0  0  0  0  0
   91.5635   53.3484  272.9989 H   0  0  0  0  0  0  0  0  0  0  0  0
   90.7995   52.5071  271.6079 H   0  0  0  0  0  0  0  0  0  0  0  0
   92.1128   51.7030  272.5328 H   0  0  0  0  0  0  0  0  0  0  0  0
   91.4263   47.5138  264.0143 H   0  0  0  0  0  0  0  0  0  0  0  0
   88.0002   47.7481  264.9958 H   0  0  0  0  0  0  0  0  0  0  0  0
   86.8999   45.6742  264.3785 H   0  0  0  0  0  0  0  0  0  0  0  0
   88.2428   45.3823  262.3436 H   0  0  0  0  0  0  0  0  0  0  0  0
   86.2062   46.4678  267.8793 H   0  0  0  0  0  0  0  0  0  0  0  0
   85.8744   46.2282  266.1303 H   0  0  0  0  0  0  0  0  0  0  0  0
   87.0065   45.1289  266.9886 H   0  0  0  0  0  0  0  0  0  0  0  0
  1  2  1  0  0  0  0
  1 23  2  0  0  0  0
  2  3  2  0  0  0  0
  2  5  1  0  0  0  0
  3  4  1  0  0  0  0
  4  7  2  0  0  0  0
  4 12  1  0  0  0  0
  5  6  2  0  0  0  0
  6  7  1  0  0  0  0
  6 11  1  0  0  0  0
  7  8  1  0  0  0  0
  8  9  2  0  0  0  0
  9 10  1  0  0  0  0
 10 11  2  0  0  0  0
 12 13  2  0  0  0  0
 12 15  1  0  0  0  0
 13 14  1  0  0  0  0
 14 18  2  0  0  0  0
 15 17  2  0  0  0  0
 16 17  1  0  0  0  0
 16 20  1  0  0  0  0
 16 21  1  0  0  0  0
 17 18  1  0  0  0  0
 18 19  1  0  0  0  0
 19 20  2  0  0  0  0
 22 23  1  0  0  0  0
 22 27  2  0  0  0  0
 23 24  1  0  0  0  0
 24 25  1  0  0  0  0
 24 28  1  0  0  0  0
 25 26  2  0  0  0  0
 26 27  1  0  0  0  0
 28 29  1  0  0  0  0
  3 30  1  0  0  0  0
  5 31  1  0  0  0  0
  9 32  1  0  0  0  0
 10 33  1  0  0  0  0
 13 34  1  0  0  0  0
 14 35  1  0  0  0  0
 15 36  1  0  0  0  0
 19 37  1  0  0  0  0
 20 38  1  0  0  0  0
 21 39  1  0  0  0  0
 21 40  1  0  0  0  0
 21 41  1  0  0  0  0
 22 42  1  0  0  0  0
 24 43  1  0  0  0  0
 25 44  1  0  0  0  0
 26 45  1  0  0  0  0
 29 46  1  0  0  0  0
 29 47  1  0  0  0  0
 29 48  1  0  0  0  0
M  END
> <ID>
31

> <IC50[uM]>
0.157

$$$$
31
  -OEChem-05192314313D
 Structure written by MMmdl.
 48 52  0     0  0  0  0  0  0999 V2000
   90.2734   48.1373  266.3119 N   0  0  0  0  0  0  0  0  0  0  0  0
   91.6117   48.3398  266.6726 C   0  0  0  0  0  0  0  0  0  0  0  0
   91.9712   49.5358  267.2869 C   0  0  0  0  0  0  0  0  0  0  0  0
   93.2859   49.8045  267.6861 C   0  0  0  0  0  0  0  0  0  0  0  0
   92.5671   47.3483  266.4685 C   0  0  0  0  0  0  0  0  0  0  0  0
   93.8944   47.5452  266.9039 C   0  0  0  0  0  0  0  0  0  0  0  0
   94.2720   48.7853  267.5093 C   0  0  0  0  0  0  0  0  0  0  0  0
   95.5613   48.9672  267.9330 N   0  0  0  0  0  0  0  0  0  0  0  0
   96.4474   47.9577  267.7413 C   0  0  0  0  0  0  0  0  0  0  0  0
   96.0603   46.7471  267.1804 C   0  0  0  0  0  0  0  0  0  0  0  0
   94.7948   46.5347  266.7539 N   0  0  0  0  0  0  0  0  0  0  0  0
   93.5898   51.1081  268.3324 C   0  0  0  0  0  0  0  0  0  0  0  0
   94.5658   51.9591  267.8021 C   0  0  0  0  0  0  0  0  0  0  0  0
   94.8582   53.1934  268.3840 C   0  0  0  0  0  0  0  0  0  0  0  0
   92.8861   51.4597  269.4865 C   0  0  0  0  0  0  0  0  0  0  0  0
   92.7260   53.2479  271.2608 N   0  0  0  0  0  0  0  0  0  0  0  0
   93.1982   52.6767  270.0937 C   0  0  0  0  0  0  0  0  0  0  0  0
   94.1524   53.5738  269.5353 C   0  0  0  0  0  0  0  0  0  0  0  0
   94.1575   54.7293  270.3755 C   0  0  0  0  0  0  0  0  0  0  0  0
   93.3428   54.4594  271.4429 C   0  0  0  0  0  0  0  0  0  0  0  0
   91.7409   52.6665  272.1542 C   0  0  0  0  0  0  0  0  0  0  0  0
   90.4241   47.1199  264.0974 C   0  0  0  0  0  0  0  0  0  0  0  0
   89.7187   47.3508  265.2862 C   0  0  0  0  0  0  0  0  0  0  0  0
   88.4205   46.8190  265.4083 C   0  0  0  0  0  0  0  0  0  0  0  0
   87.8923   46.0966  264.3222 C   0  0  0  0  0  0  0  0  0  0  0  0
   88.6643   45.9320  263.1722 C   0  0  0  0  0  0  0  0  0  0  0  0
   89.9182   46.4295  263.0460 N   0  0  0  0  0  0  0  0  0  0  0  0
   87.7289   47.0297  266.5905 O   0  0  0  0  0  0  0  0  0  0  0  0
   86.6417   46.1641  266.9159 C   0  0  0  0  0  0  0  0  0  0  0  0
   91.2101   50.2819  267.4615 H   0  0  0  0  0  0  0  0  0  0  0  0
   92.2919   46.4272  265.9763 H   0  0  0  0  0  0  0  0  0  0  0  0
   97.4781   48.0986  268.0316 H   0  0  0  0  0  0  0  0  0  0  0  0
   96.7885   45.9556  267.0825 H   0  0  0  0  0  0  0  0  0  0  0  0
   95.1071   51.6526  266.9192 H   0  0  0  0  0  0  0  0  0  0  0  0
   95.6104   53.8408  267.9579 H   0  0  0  0  0  0  0  0  0  0  0  0
   92.1255   50.8111  269.8955 H   0  0  0  0  0  0  0  0  0  0  0  0
   94.7025   55.6453  270.2013 H   0  0  0  0  0  0  0  0  0  0  0  0
   93.2066   55.1035  272.2990 H   0  0  0  0  0  0  0  0  0  0  0  0
   91.5635   53.3484  272.9989 H   0  0  0  0  0  0  0  0  0  0  0  0
   90.7995   52.5071  271.6079 H   0  0  0  0  0  0  0  0  0  0  0  0
   92.1128   51.7030  272.5328 H   0  0  0  0  0  0  0  0  0  0  0  0
   91.4263   47.5138  264.0143 H   0  0  0  0  0  0  0  0  0  0  0  0
   86.8999   45.6742  264.3785 H   0  0  0  0  0  0  0  0  0  0  0  0
   88.7527   44.8462  263.0198 H   0  0  0  0  0  0  0  0  0  0  0  0
   88.0802   46.3713  262.3501 H   0  0  0  0  0  0  0  0  0  0  0  0
   86.2062   46.4678  267.8793 H   0  0  0  0  0  0  0  0  0  0  0  0
   85.8744   46.2282  266.1303 H   0  0  0  0  0  0  0  0  0  0  0  0
   87.0065   45.1289  266.9886 H   0  0  0  0  0  0  0  0  0  0  0  0
  1  2  1  0  0  0  0
  1 23  2  0  0  0  0
  2  3  2  0  0  0  0
  2  5  1  0  0  0  0
  3  4  1  0  0  0  0
  4  7  2  0  0  0  0
  4 12  1  0  0  0  0
  5  6  2  0  0  0  0
  6  7  1  0  0  0  0
  6 11  1  0  0  0  0
  7  8  1  0  0  0  0
  8  9  2  0  0  0  0
  9 10  1  0  0  0  0
 10 11  2  0  0  0  0
 12 13  2  0  0  0  0
 12 15  1  0  0  0  0
 13 14  1  0  0  0  0
 14 18  2  0  0  0  0
 15 17  2  0  0  0  0
 16 17  1  0  0  0  0
 16 20  1  0  0  0  0
 16 21  1  0  0  0  0
 17 18  1  0  0  0  0
 18 19  1  0  0  0  0
 19 20  2  0  0  0  0
 22 23  1  0  0  0  0
 22 27  2  0  0  0  0
 23 24  1  0  0  0  0
 24 25  2  0  0  0  0
 24 28  1  0  0  0  0
 25 26  1  0  0  0  0
 26 27  1  0  0  0  0
 28 29  1  0  0  0  0
  3 30  1  0  0  0  0
  5 31  1  0  0  0  0
  9 32  1  0  0  0  0
 10 33  1  0  0  0  0
 13 34  1  0  0  0  0
 14 35  1  0  0  0  0
 15 36  1  0  0  0  0
 19 37  1  0  0  0  0
 20 38  1  0  0  0  0
 21 39  1  0  0  0  0
 21 40  1  0  0  0  0
 21 41  1  0  0  0  0
 22 42  1  0  0  0  0
 25 43  1  0  0  0  0
 26 44  1  0  0  0  0
 26 45  1  0  0  0  0
 29 46  1  0  0  0  0
 29 47  1  0  0  0  0
 29 48  1  0  0  0  0
M  END
> <ID>
31

> <IC50[uM]>
0.157

$$$$
31
  -OEChem-05192314313D
 Structure written by MMmdl.
 48 52  0     0  0  0  0  0  0999 V2000
   90.2734   48.1373  266.3119 N   0  0  0  0  0  0  0  0  0  0  0  0
   91.6117   48.3398  266.6726 C   0  0  0  0  0  0  0  0  0  0  0  0
   91.9712   49.5358  267.2869 C   0  0  0  0  0  0  0  0  0  0  0  0
   93.2859   49.8045  267.6861 C   0  0  0  0  0  0  0  0  0  0  0  0
   92.5671   47.3483  266.4685 C   0  0  0  0  0  0  0  0  0  0  0  0
   93.8944   47.5452  266.9039 C   0  0  0  0  0  0  0  0  0  0  0  0
   94.2720   48.7853  267.5093 C   0  0  0  0  0  0  0  0  0  0  0  0
   95.5613   48.9672  267.9330 N   0  0  0  0  0  0  0  0  0  0  0  0
   96.4474   47.9577  267.7413 C   0  0  0  0  0  0  0  0  0  0  0  0
   96.0603   46.7471  267.1804 C   0  0  0  0  0  0  0  0  0  0  0  0
   94.7948   46.5347  266.7539 N   0  0  0  0  0  0  0  0  0  0  0  0
   93.5898   51.1081  268.3324 C   0  0  0  0  0  0  0  0  0  0  0  0
   94.5658   51.9591  267.8021 C   0  0  0  0  0  0  0  0  0  0  0  0
   94.8582   53.1934  268.3840 C   0  0  0  0  0  0  0  0  0  0  0  0
   92.8861   51.4597  269.4865 C   0  0  0  0  0  0  0  0  0  0  0  0
   92.7260   53.2479  271.2608 N   0  0  0  0  0  0  0  0  0  0  0  0
   93.1982   52.6767  270.0937 C   0  0  0  0  0  0  0  0  0  0  0  0
   94.1524   53.5738  269.5353 C   0  0  0  0  0  0  0  0  0  0  0  0
   94.1575   54.7293  270.3755 C   0  0  0  0  0  0  0  0  0  0  0  0
   93.3428   54.4594  271.4429 C   0  0  0  0  0  0  0  0  0  0  0  0
   91.7409   52.6665  272.1542 C   0  0  0  0  0  0  0  0  0  0  0  0
   90.4241   47.1199  264.0974 C   0  0  0  0  0  0  0  0  0  0  0  0
   89.7187   47.3508  265.2862 C   0  0  0  0  0  0  0  0  0  0  0  0
   88.4205   46.8190  265.4083 C   0  0  0  0  0  0  0  0  0  0  0  0
   87.8923   46.0966  264.3222 C   0  0  0  0  0  0  0  0  0  0  0  0
   88.6643   45.9320  263.1722 C   0  0  0  0  0  0  0  0  0  0  0  0
   89.9182   46.4295  263.0460 N   0  0  0  0  0  0  0  0  0  0  0  0
   87.7289   47.0297  266.5905 O   0  0  0  0  0  0  0  0  0  0  0  0
   86.6417   46.1641  266.9159 C   0  0  0  0  0  0  0  0  0  0  0  0
   91.2101   50.2819  267.4615 H   0  0  0  0  0  0  0  0  0  0  0  0
   92.2919   46.4272  265.9763 H   0  0  0  0  0  0  0  0  0  0  0  0
   97.4781   48.0986  268.0316 H   0  0  0  0  0  0  0  0  0  0  0  0
   96.7885   45.9556  267.0825 H   0  0  0  0  0  0  0  0  0  0  0  0
   95.1071   51.6526  266.9192 H   0  0  0  0  0  0  0  0  0  0  0  0
   95.6104   53.8408  267.9579 H   0  0  0  0  0  0  0  0  0  0  0  0
   92.1255   50.8111  269.8955 H   0  0  0  0  0  0  0  0  0  0  0  0
   94.7025   55.6453  270.2013 H   0  0  0  0  0  0  0  0  0  0  0  0
   93.2066   55.1035  272.2990 H   0  0  0  0  0  0  0  0  0  0  0  0
   91.5635   53.3484  272.9989 H   0  0  0  0  0  0  0  0  0  0  0  0
   90.7995   52.5071  271.6079 H   0  0  0  0  0  0  0  0  0  0  0  0
   92.1128   51.7030  272.5328 H   0  0  0  0  0  0  0  0  0  0  0  0
   90.6853   48.1141  263.7057 H   0  0  0  0  0  0  0  0  0  0  0  0
   91.3416   46.5890  264.3913 H   0  0  0  0  0  0  0  0  0  0  0  0
   86.8999   45.6742  264.3785 H   0  0  0  0  0  0  0  0  0  0  0  0
   88.2428   45.3823  262.3436 H   0  0  0  0  0  0  0  0  0  0  0  0
   86.2062   46.4678  267.8793 H   0  0  0  0  0  0  0  0  0  0  0  0
   85.8744   46.2282  266.1303 H   0  0  0  0  0  0  0  0  0  0  0  0
   87.0065   45.1289  266.9886 H   0  0  0  0  0  0  0  0  0  0  0  0
  1  2  1  0  0  0  0
  1 23  2  0  0  0  0
  2  3  2  0  0  0  0
  2  5  1  0  0  0  0
  3  4  1  0  0  0  0
  4  7  2  0  0  0  0
  4 12  1  0  0  0  0
  5  6  2  0  0  0  0
  6  7  1  0  0  0  0
  6 11  1  0  0  0  0
  7  8  1  0  0  0  0
  8  9  2  0  0  0  0
  9 10  1  0  0  0  0
 10 11  2  0  0  0  0
 12 13  2  0  0  0  0
 12 15  1  0  0  0  0
 13 14  1  0  0  0  0
 14 18  2  0  0  0  0
 15 17  2  0  0  0  0
 16 17  1  0  0  0  0
 16 20  1  0  0  0  0
 16 21  1  0  0  0  0
 17 18  1  0  0  0  0
 18 19  1  0  0  0  0
 19 20  2  0  0  0  0
 22 23  1  0  0  0  0
 22 27  1  0  0  0  0
 23 24  1  0  0  0  0
 24 25  2  0  0  0  0
 24 28  1  0  0  0  0
 25 26  1  0  0  0  0
 26 27  2  0  0  0  0
 28 29  1  0  0  0  0
  3 30  1  0  0  0  0
  5 31  1  0  0  0  0
  9 32  1  0  0  0  0
 10 33  1  0  0  0  0
 13 34  1  0  0  0  0
 14 35  1  0  0  0  0
 15 36  1  0  0  0  0
 19 37  1  0  0  0  0
 20 38  1  0  0  0  0
 21 39  1  0  0  0  0
 21 40  1  0  0  0  0
 21 41  1  0  0  0  0
 22 42  1  0  0  0  0
 22 43  1  0  0  0  0
 25 44  1  0  0  0  0
 26 45  1  0  0  0  0
 29 46  1  0  0  0  0
 29 47  1  0  0  0  0
 29 48  1  0  0  0  0
M  END
> <ID>
31

> <IC50[uM]>
0.157

$$$$
31
  -OEChem-05192314313D
 Structure written by MMmdl.
 48 52  0     1  0  0  0  0  0999 V2000
   90.2734   48.1373  266.3119 N   0  0  0  0  0  0  0  0  0  0  0  0
   91.6117   48.3398  266.6726 C   0  0  0  0  0  0  0  0  0  0  0  0
   91.9712   49.5358  267.2869 C   0  0  0  0  0  0  0  0  0  0  0  0
   93.2859   49.8045  267.6861 C   0  0  0  0  0  0  0  0  0  0  0  0
   92.5671   47.3483  266.4685 C   0  0  0  0  0  0  0  0  0  0  0  0
   93.8944   47.5452  266.9039 C   0  0  0  0  0  0  0  0  0  0  0  0
   94.2720   48.7853  267.5093 C   0  0  3  0  0  0  0  0  0  0  0  0
   95.5613   48.9672  267.9330 N   0  0  0  0  0  0  0  0  0  0  0  0
   96.4474   47.9577  267.7413 C   0  0  0  0  0  0  0  0  0  0  0  0
   96.0603   46.7471  267.1804 C   0  0  0  0  0  0  0  0  0  0  0  0
   94.7948   46.5347  266.7539 N   0  0  0  0  0  0  0  0  0  0  0  0
   93.5898   51.1081  268.3324 C   0  0  0  0  0  0  0  0  0  0  0  0
   94.5658   51.9591  267.8021 C   0  0  0  0  0  0  0  0  0  0  0  0
   94.8582   53.1934  268.3840 C   0  0  0  0  0  0  0  0  0  0  0  0
   92.8861   51.4597  269.4865 C   0  0  0  0  0  0  0  0  0  0  0  0
   92.7260   53.2479  271.2608 N   0  0  0  0  0  0  0  0  0  0  0  0
   93.1982   52.6767  270.0937 C   0  0  0  0  0  0  0  0  0  0  0  0
   94.1524   53.5738  269.5353 C   0  0  0  0  0  0  0  0  0  0  0  0
   94.1575   54.7293  270.3755 C   0  0  0  0  0  0  0  0  0  0  0  0
   93.3428   54.4594  271.4429 C   0  0  0  0  0  0  0  0  0  0  0  0
   91.7409   52.6665  272.1542 C   0  0  0  0  0  0  0  0  0  0  0  0
   90.4241   47.1199  264.0974 C   0  0  0  0  0  0  0  0  0  0  0  0
   89.7187   47.3508  265.2862 C   0  0  0  0  0  0  0  0  0  0  0  0
   88.4205   46.8190  265.4083 C   0  0  0  0  0  0  0  0  0  0  0  0
   87.8923   46.0966  264.3222 C   0  0  0  0  0  0  0  0  0  0  0  0
   88.6643   45.9320  263.1722 C   0  0  0  0  0  0  0  0  0  0  0  0
   89.9182   46.4295  263.0460 N   0  0  0  0  0  0  0  0  0  0  0  0
   87.7289   47.0297  266.5905 O   0  0  0  0  0  0  0  0  0  0  0  0
   86.6417   46.1641  266.9159 C   0  0  0  0  0  0  0  0  0  0  0  0
   91.2101   50.2819  267.4615 H   0  0  0  0  0  0  0  0  0  0  0  0
   92.2919   46.4272  265.9763 H   0  0  0  0  0  0  0  0  0  0  0  0
   94.5304   49.1966  266.5224 H   0  0  0  0  0  0  0  0  0  0  0  0
   97.4781   48.0986  268.0316 H   0  0  0  0  0  0  0  0  0  0  0  0
   96.7885   45.9556  267.0825 H   0  0  0  0  0  0  0  0  0  0  0  0
   95.1071   51.6526  266.9192 H   0  0  0  0  0  0  0  0  0  0  0  0
   95.6104   53.8408  267.9579 H   0  0  0  0  0  0  0  0  0  0  0  0
   92.1255   50.8111  269.8955 H   0  0  0  0  0  0  0  0  0  0  0  0
   94.7025   55.6453  270.2013 H   0  0  0  0  0  0  0  0  0  0  0  0
   93.2066   55.1035  272.2990 H   0  0  0  0  0  0  0  0  0  0  0  0
   91.5635   53.3484  272.9989 H   0  0  0  0  0  0  0  0  0  0  0  0
   90.7995   52.5071  271.6079 H   0  0  0  0  0  0  0  0  0  0  0  0
   92.1128   51.7030  272.5328 H   0  0  0  0  0  0  0  0  0  0  0  0
   91.4263   47.5138  264.0143 H   0  0  0  0  0  0  0  0  0  0  0  0
   86.8999   45.6742  264.3785 H   0  0  0  0  0  0  0  0  0  0  0  0
   88.2428   45.3823  262.3436 H   0  0  0  0  0  0  0  0  0  0  0  0
   86.2062   46.4678  267.8793 H   0  0  0  0  0  0  0  0  0  0  0  0
   85.8744   46.2282  266.1303 H   0  0  0  0  0  0  0  0  0  0  0  0
   87.0065   45.1289  266.9886 H   0  0  0  0  0  0  0  0  0  0  0  0
  1  2  2  0  0  0  0
  1 23  1  0  0  0  0
  2  3  1  0  0  0  0
  2  5  1  0  0  0  0
  3  4  2  0  0  0  0
  4  7  1  0  0  0  0
  4 12  1  0  0  0  0
  5  6  2  0  0  0  0
  6  7  1  0  0  0  0
  6 11  1  0  0  0  0
  7  8  1  0  0  0  0
  8  9  2  0  0  0  0
  9 10  1  0  0  0  0
 10 11  2  0  0  0  0
 12 13  2  0  0  0  0
 12 15  1  0  0  0  0
 13 14  1  0  0  0  0
 14 18  2  0  0  0  0
 15 17  2  0  0  0  0
 16 17  1  0  0  0  0
 16 20  1  0  0  0  0
 16 21  1  0  0  0  0
 17 18  1  0  0  0  0
 18 19  1  0  0  0  0
 19 20  2  0  0  0  0
 22 23  2  0  0  0  0
 22 27  1  0  0  0  0
 23 24  1  0  0  0  0
 24 25  2  0  0  0  0
 24 28  1  0  0  0  0
 25 26  1  0  0  0  0
 26 27  2  0  0  0  0
 28 29  1  0  0  0  0
  3 30  1  0  0  0  0
  5 31  1  0  0  0  0
  7 32  1  0  0  0  0
  9 33  1  0  0  0  0
 10 34  1  0  0  0  0
 13 35  1  0  0  0  0
 14 36  1  0  0  0  0
 15 37  1  0  0  0  0
 19 38  1  0  0  0  0
 20 39  1  0  0  0  0
 21 40  1  0  0  0  0
 21 41  1  0  0  0  0
 21 42  1  0  0  0  0
 22 43  1  0  0  0  0
 25 44  1  0  0  0  0
 26 45  1  0  0  0  0
 29 46  1  0  0  0  0
 29 47  1  0  0  0  0
 29 48  1  0  0  0  0
M  END
> <ID>
31

> <IC50[uM]>
0.157

$$$$
31
  -OEChem-05192314313D
 Structure written by MMmdl.
 48 52  0     0  0  0  0  0  0999 V2000
   90.2734   48.1373  266.3119 N   0  0  0  0  0  0  0  0  0  0  0  0
   91.6117   48.3398  266.6726 C   0  0  0  0  0  0  0  0  0  0  0  0
   91.9712   49.5358  267.2869 C   0  0  0  0  0  0  0  0  0  0  0  0
   93.2859   49.8045  267.6861 C   0  0  0  0  0  0  0  0  0  0  0  0
   92.5671   47.3483  266.4685 C   0  0  0  0  0  0  0  0  0  0  0  0
   93.8944   47.5452  266.9039 C   0  0  0  0  0  0  0  0  0  0  0  0
   94.2720   48.7853  267.5093 C   0  0  0  0  0  0  0  0  0  0  0  0
   95.5613   48.9672  267.9330 N   0  0  0  0  0  0  0  0  0  0  0  0
   96.4474   47.9577  267.7413 C   0  0  0  0  0  0  0  0  0  0  0  0
   96.0603   46.7471  267.1804 C   0  0  0  0  0  0  0  0  0  0  0  0
   94.7948   46.5347  266.7539 N   0  0  0  0  0  0  0  0  0  0  0  0
   93.5898   51.1081  268.3324 C   0  0  0  0  0  0  0  0  0  0  0  0
   94.5658   51.9591  267.8021 C   0  0  0  0  0  0  0  0  0  0  0  0
   94.8582   53.1934  268.3840 C   0  0  0  0  0  0  0  0  0  0  0  0
   92.8861   51.4597  269.4865 C   0  0  0  0  0  0  0  0  0  0  0  0
   92.7260   53.2479  271.2608 N   0  0  0  0  0  0  0  0  0  0  0  0
   93.1982   52.6767  270.0937 C   0  0  0  0  0  0  0  0  0  0  0  0
   94.1524   53.5738  269.5353 C   0  0  0  0  0  0  0  0  0  0  0  0
   94.1575   54.7293  270.3755 C   0  0  0  0  0  0  0  0  0  0  0  0
   93.3428   54.4594  271.4429 C   0  0  0  0  0  0  0  0  0  0  0  0
   91.7409   52.6665  272.1542 C   0  0  0  0  0  0  0  0  0  0  0  0
   90.4241   47.1199  264.0974 C   0  0  0  0  0  0  0  0  0  0  0  0
   89.7187   47.3508  265.2862 C   0  0  0  0  0  0  0  0  0  0  0  0
   88.4205   46.8190  265.4083 C   0  0  0  0  0  0  0  0  0  0  0  0
   87.8923   46.0966  264.3222 C   0  0  0  0  0  0  0  0  0  0  0  0
   88.6643   45.9320  263.1722 C   0  0  0  0  0  0  0  0  0  0  0  0
   89.9182   46.4295  263.0460 N   0  0  0  0  0  0  0  0  0  0  0  0
   87.7289   47.0297  266.5905 O   0  0  0  0  0  0  0  0  0  0  0  0
   86.6417   46.1641  266.9159 C   0  0  0  0  0  0  0  0  0  0  0  0
   91.2101   50.2819  267.4615 H   0  0  0  0  0  0  0  0  0  0  0  0
   92.2919   46.4272  265.9763 H   0  0  0  0  0  0  0  0  0  0  0  0
   97.2403   48.3600  267.0937 H   0  0  0  0  0  0  0  0  0  0  0  0
   96.8666   47.7211  268.7304 H   0  0  0  0  0  0  0  0  0  0  0  0
   96.7885   45.9556  267.0825 H   0  0  0  0  0  0  0  0  0  0  0  0
   95.1071   51.6526  266.9192 H   0  0  0  0  0  0  0  0  0  0  0  0
   95.6104   53.8408  267.9579 H   0  0  0  0  0  0  0  0  0  0  0  0
   92.1255   50.8111  269.8955 H   0  0  0  0  0  0  0  0  0  0  0  0
   94.7025   55.6453  270.2013 H   0  0  0  0  0  0  0  0  0  0  0  0
   93.2066   55.1035  272.2990 H   0  0  0  0  0  0  0  0  0  0  0  0
   91.5635   53.3484  272.9989 H   0  0  0  0  0  0  0  0  0  0  0  0
   90.7995   52.5071  271.6079 H   0  0  0  0  0  0  0  0  0  0  0  0
   92.1128   51.7030  272.5328 H   0  0  0  0  0  0  0  0  0  0  0  0
   91.4263   47.5138  264.0143 H   0  0  0  0  0  0  0  0  0  0  0  0
   86.8999   45.6742  264.3785 H   0  0  0  0  0  0  0  0  0  0  0  0
   88.2428   45.3823  262.3436 H   0  0  0  0  0  0  0  0  0  0  0  0
   86.2062   46.4678  267.8793 H   0  0  0  0  0  0  0  0  0  0  0  0
   85.8744   46.2282  266.1303 H   0  0  0  0  0  0  0  0  0  0  0  0
   87.0065   45.1289  266.9886 H   0  0  0  0  0  0  0  0  0  0  0  0
  1  2  2  0  0  0  0
  1 23  1  0  0  0  0
  2  3  1  0  0  0  0
  2  5  1  0  0  0  0
  3  4  2  0  0  0  0
  4  7  1  0  0  0  0
  4 12  1  0  0  0  0
  5  6  2  0  0  0  0
  6  7  1  0  0  0  0
  6 11  1  0  0  0  0
  7  8  2  0  0  0  0
  8  9  1  0  0  0  0
  9 10  1  0  0  0  0
 10 11  2  0  0  0  0
 12 13  2  0  0  0  0
 12 15  1  0  0  0  0
 13 14  1  0  0  0  0
 14 18  2  0  0  0  0
 15 17  2  0  0  0  0
 16 17  1  0  0  0  0
 16 20  1  0  0  0  0
 16 21  1  0  0  0  0
 17 18  1  0  0  0  0
 18 19  1  0  0  0  0
 19 20  2  0  0  0  0
 22 23  2  0  0  0  0
 22 27  1  0  0  0  0
 23 24  1  0  0  0  0
 24 25  2  0  0  0  0
 24 28  1  0  0  0  0
 25 26  1  0  0  0  0
 26 27  2  0  0  0  0
 28 29  1  0  0  0  0
  3 30  1  0  0  0  0
  5 31  1  0  0  0  0
  9 32  1  0  0  0  0
  9 33  1  0  0  0  0
 10 34  1  0  0  0  0
 13 35  1  0  0  0  0
 14 36  1  0  0  0  0
 15 37  1  0  0  0  0
 19 38  1  0  0  0  0
 20 39  1  0  0  0  0
 21 40  1  0  0  0  0
 21 41  1  0  0  0  0
 21 42  1  0  0  0  0
 22 43  1  0  0  0  0
 25 44  1  0  0  0  0
 26 45  1  0  0  0  0
 29 46  1  0  0  0  0
 29 47  1  0  0  0  0
 29 48  1  0  0  0  0
M  END
> <ID>
31

> <IC50[uM]>
0.157

$$$$
