33
  -OEChem-05192314313D
 Structure written by MMmdl.
 45 49  0     0  0  0  0  0  0999 V2000
   90.2783   48.1451  266.3142 N   0  0  0  0  0  0  0  0  0  0  0  0
   91.6169   48.3446  266.6738 C   0  0  0  0  0  0  0  0  0  0  0  0
   91.9745   49.5378  267.2907 C   0  0  0  0  0  0  0  0  0  0  0  0
   93.2869   49.8041  267.6905 C   0  0  0  0  0  0  0  0  0  0  0  0
   94.2733   48.7861  267.5115 C   0  0  0  0  0  0  0  0  0  0  0  0
   93.8958   47.5470  266.9048 C   0  0  0  0  0  0  0  0  0  0  0  0
   92.5700   47.3545  266.4704 C   0  0  0  0  0  0  0  0  0  0  0  0
   93.5906   51.1033  268.3373 C   0  0  0  0  0  0  0  0  0  0  0  0
   94.5701   51.9485  267.7930 C   0  0  0  0  0  0  0  0  0  0  0  0
   94.8766   53.1828  268.3625 C   0  0  0  0  0  0  0  0  0  0  0  0
   94.1744   53.5766  269.5033 C   0  0  0  0  0  0  0  0  0  0  0  0
   93.2113   52.6777  270.0810 C   0  0  0  0  0  0  0  0  0  0  0  0
   92.8959   51.4563  269.4914 C   0  0  0  0  0  0  0  0  0  0  0  0
   94.1946   54.7419  270.3240 C   0  0  0  0  0  0  0  0  0  0  0  0
   93.3205   54.5041  271.3412 C   0  0  0  0  0  0  0  0  0  0  0  0
   92.7610   53.2794  271.2415 N   0  0  0  0  0  0  0  0  0  0  0  0
   94.7935   46.5354  266.7547 N   0  0  0  0  0  0  0  0  0  0  0  0
   96.0594   46.7465  267.1790 C   0  0  0  0  0  0  0  0  0  0  0  0
   96.4464   47.9594  267.7361 C   0  0  0  0  0  0  0  0  0  0  0  0
   95.5618   48.9678  267.9325 N   0  0  0  0  0  0  0  0  0  0  0  0
   91.8513   52.7306  272.2454 C   0  0  0  0  0  0  0  0  0  0  0  0
   89.7124   47.3504  265.2983 C   0  0  0  0  0  0  0  0  0  0  0  0
   88.4077   46.8215  265.3936 C   0  0  0  0  0  0  0  0  0  0  0  0
   87.8831   46.1009  264.3157 C   0  0  0  0  0  0  0  0  0  0  0  0
   88.6642   45.9359  263.1759 C   0  0  0  0  0  0  0  0  0  0  0  0
   89.9193   46.4305  263.0542 N   0  0  0  0  0  0  0  0  0  0  0  0
   90.4194   47.1175  264.1115 C   0  0  0  0  0  0  0  0  0  0  0  0
   87.5851   46.9636  266.5914 C   0  0  0  0  0  0  0  0  0  0  0  0
   86.9354   47.0770  267.5414 N   0  0  0  0  0  0  0  0  0  0  0  0
   89.6163   48.6489  266.8691 H   0  0  0  0  0  0  0  0  0  0  0  0
   91.2133   50.2834  267.4668 H   0  0  0  0  0  0  0  0  0  0  0  0
   92.2933   46.4342  265.9776 H   0  0  0  0  0  0  0  0  0  0  0  0
   95.1015   51.6331  266.9073 H   0  0  0  0  0  0  0  0  0  0  0  0
   95.6371   53.8180  267.9329 H   0  0  0  0  0  0  0  0  0  0  0  0
   92.1419   50.8080  269.9128 H   0  0  0  0  0  0  0  0  0  0  0  0
   94.7842   55.6336  270.1703 H   0  0  0  0  0  0  0  0  0  0  0  0
   93.1019   55.2084  272.1302 H   0  0  0  0  0  0  0  0  0  0  0  0
   96.7870   45.9542  267.0828 H   0  0  0  0  0  0  0  0  0  0  0  0
   97.4786   48.1024  268.0200 H   0  0  0  0  0  0  0  0  0  0  0  0
   91.6985   53.4697  273.0456 H   0  0  0  0  0  0  0  0  0  0  0  0
   90.8854   52.4948  271.7749 H   0  0  0  0  0  0  0  0  0  0  0  0
   92.2853   51.8139  272.6711 H   0  0  0  0  0  0  0  0  0  0  0  0
   86.8898   45.6801  264.3671 H   0  0  0  0  0  0  0  0  0  0  0  0
   88.2481   45.3850  262.3454 H   0  0  0  0  0  0  0  0  0  0  0  0
   91.4231   47.5085  264.0337 H   0  0  0  0  0  0  0  0  0  0  0  0
  1  2  1  0  0  0  0
  1 22  1  0  0  0  0
  2  3  2  0  0  0  0
  2  7  1  0  0  0  0
  3  4  1  0  0  0  0
  4  5  2  0  0  0  0
  4  8  1  0  0  0  0
  5 20  1  0  0  0  0
  5  6  1  0  0  0  0
  6  7  2  0  0  0  0
  6 17  1  0  0  0  0
  8  9  2  0  0  0  0
  8 13  1  0  0  0  0
  9 10  1  0  0  0  0
 10 11  2  0  0  0  0
 11 14  1  0  0  0  0
 11 12  1  0  0  0  0
 12 13  2  0  0  0  0
 12 16  1  0  0  0  0
 14 15  2  0  0  0  0
 15 16  1  0  0  0  0
 16 21  1  0  0  0  0
 17 18  2  0  0  0  0
 18 19  1  0  0  0  0
 19 20  2  0  0  0  0
 22 23  2  0  0  0  0
 22 27  1  0  0  0  0
 23 24  1  0  0  0  0
 23 28  1  0  0  0  0
 24 25  2  0  0  0  0
 25 26  1  0  0  0  0
 26 27  2  0  0  0  0
 28 29  3  0  0  0  0
  1 30  1  0  0  0  0
  3 31  1  0  0  0  0
  7 32  1  0  0  0  0
  9 33  1  0  0  0  0
 10 34  1  0  0  0  0
 13 35  1  0  0  0  0
 14 36  1  0  0  0  0
 15 37  1  0  0  0  0
 18 38  1  0  0  0  0
 19 39  1  0  0  0  0
 21 40  1  0  0  0  0
 21 41  1  0  0  0  0
 21 42  1  0  0  0  0
 24 43  1  0  0  0  0
 25 44  1  0  0  0  0
 27 45  1  0  0  0  0
M  END
> <ID>
33

> <IC50[uM]>
0.491

$$$$
33
  -OEChem-05192314313D
 Structure written by MMmdl.
 45 49  0     0  0  0  0  0  0999 V2000
   90.2783   48.1451  266.3142 N   0  0  0  0  0  0  0  0  0  0  0  0
   91.6169   48.3446  266.6738 C   0  0  0  0  0  0  0  0  0  0  0  0
   91.9745   49.5378  267.2907 C   0  0  0  0  0  0  0  0  0  0  0  0
   93.2869   49.8041  267.6905 C   0  0  0  0  0  0  0  0  0  0  0  0
   94.2733   48.7861  267.5115 C   0  0  0  0  0  0  0  0  0  0  0  0
   93.8958   47.5470  266.9048 C   0  0  0  0  0  0  0  0  0  0  0  0
   92.5700   47.3545  266.4704 C   0  0  0  0  0  0  0  0  0  0  0  0
   93.5906   51.1033  268.3373 C   0  0  0  0  0  0  0  0  0  0  0  0
   94.5701   51.9485  267.7930 C   0  0  0  0  0  0  0  0  0  0  0  0
   94.8766   53.1828  268.3625 C   0  0  0  0  0  0  0  0  0  0  0  0
   94.1744   53.5766  269.5033 C   0  0  0  0  0  0  0  0  0  0  0  0
   93.2113   52.6777  270.0810 C   0  0  0  0  0  0  0  0  0  0  0  0
   92.8959   51.4563  269.4914 C   0  0  0  0  0  0  0  0  0  0  0  0
   94.1946   54.7419  270.3240 C   0  0  0  0  0  0  0  0  0  0  0  0
   93.3205   54.5041  271.3412 C   0  0  0  0  0  0  0  0  0  0  0  0
   92.7610   53.2794  271.2415 N   0  0  0  0  0  0  0  0  0  0  0  0
   94.7935   46.5354  266.7547 N   0  0  0  0  0  0  0  0  0  0  0  0
   96.0594   46.7465  267.1790 C   0  0  0  0  0  0  0  0  0  0  0  0
   96.4464   47.9594  267.7361 C   0  0  0  0  0  0  0  0  0  0  0  0
   95.5618   48.9678  267.9325 N   0  0  0  0  0  0  0  0  0  0  0  0
   91.8513   52.7306  272.2454 C   0  0  0  0  0  0  0  0  0  0  0  0
   89.7124   47.3504  265.2983 C   0  0  0  0  0  0  0  0  0  0  0  0
   88.4077   46.8215  265.3936 C   0  0  0  0  0  0  0  0  0  0  0  0
   87.8831   46.1009  264.3157 C   0  0  0  0  0  0  0  0  0  0  0  0
   88.6642   45.9359  263.1759 C   0  0  0  0  0  0  0  0  0  0  0  0
   89.9193   46.4305  263.0542 N   0  0  0  0  0  0  0  0  0  0  0  0
   90.4194   47.1175  264.1115 C   0  0  0  0  0  0  0  0  0  0  0  0
   87.5851   46.9636  266.5914 C   0  0  0  0  0  0  0  0  0  0  0  0
   86.9354   47.0770  267.5414 N   0  0  0  0  0  0  0  0  0  0  0  0
   91.2133   50.2834  267.4668 H   0  0  0  0  0  0  0  0  0  0  0  0
   92.2933   46.4342  265.9776 H   0  0  0  0  0  0  0  0  0  0  0  0
   95.1015   51.6331  266.9073 H   0  0  0  0  0  0  0  0  0  0  0  0
   95.6371   53.8180  267.9329 H   0  0  0  0  0  0  0  0  0  0  0  0
   92.1419   50.8080  269.9128 H   0  0  0  0  0  0  0  0  0  0  0  0
   94.7842   55.6336  270.1703 H   0  0  0  0  0  0  0  0  0  0  0  0
   93.1019   55.2084  272.1302 H   0  0  0  0  0  0  0  0  0  0  0  0
   94.5254   45.6640  266.3438 H   0  0  0  0  0  0  0  0  0  0  0  0
   96.7870   45.9542  267.0828 H   0  0  0  0  0  0  0  0  0  0  0  0
   97.4786   48.1024  268.0200 H   0  0  0  0  0  0  0  0  0  0  0  0
   91.6985   53.4697  273.0456 H   0  0  0  0  0  0  0  0  0  0  0  0
   90.8854   52.4948  271.7749 H   0  0  0  0  0  0  0  0  0  0  0  0
   92.2853   51.8139  272.6711 H   0  0  0  0  0  0  0  0  0  0  0  0
   86.8898   45.6801  264.3671 H   0  0  0  0  0  0  0  0  0  0  0  0
   88.2481   45.3850  262.3454 H   0  0  0  0  0  0  0  0  0  0  0  0
   91.4231   47.5085  264.0337 H   0  0  0  0  0  0  0  0  0  0  0  0
  1  2  2  0  0  0  0
  1 22  1  0  0  0  0
  2  3  1  0  0  0  0
  2  7  1  0  0  0  0
  3  4  2  0  0  0  0
  4  5  1  0  0  0  0
  4  8  1  0  0  0  0
  5 20  2  0  0  0  0
  5  6  1  0  0  0  0
  6  7  2  0  0  0  0
  6 17  1  0  0  0  0
  8  9  2  0  0  0  0
  8 13  1  0  0  0  0
  9 10  1  0  0  0  0
 10 11  2  0  0  0  0
 11 14  1  0  0  0  0
 11 12  1  0  0  0  0
 12 13  2  0  0  0  0
 12 16  1  0  0  0  0
 14 15  2  0  0  0  0
 15 16  1  0  0  0  0
 16 21  1  0  0  0  0
 17 18  1  0  0  0  0
 18 19  2  0  0  0  0
 19 20  1  0  0  0  0
 22 23  2  0  0  0  0
 22 27  1  0  0  0  0
 23 24  1  0  0  0  0
 23 28  1  0  0  0  0
 24 25  2  0  0  0  0
 25 26  1  0  0  0  0
 26 27  2  0  0  0  0
 28 29  3  0  0  0  0
  3 30  1  0  0  0  0
  7 31  1  0  0  0  0
  9 32  1  0  0  0  0
 10 33  1  0  0  0  0
 13 34  1  0  0  0  0
 14 35  1  0  0  0  0
 15 36  1  0  0  0  0
 17 37  1  0  0  0  0
 18 38  1  0  0  0  0
 19 39  1  0  0  0  0
 21 40  1  0  0  0  0
 21 41  1  0  0  0  0
 21 42  1  0  0  0  0
 24 43  1  0  0  0  0
 25 44  1  0  0  0  0
 27 45  1  0  0  0  0
M  END
> <ID>
33

> <IC50[uM]>
0.491

$$$$
33
  -OEChem-05192314313D
 Structure written by MMmdl.
 45 49  0     0  0  0  0  0  0999 V2000
   90.2783   48.1451  266.3142 N   0  0  0  0  0  0  0  0  0  0  0  0
   91.6169   48.3446  266.6738 C   0  0  0  0  0  0  0  0  0  0  0  0
   91.9745   49.5378  267.2907 C   0  0  0  0  0  0  0  0  0  0  0  0
   93.2869   49.8041  267.6905 C   0  0  0  0  0  0  0  0  0  0  0  0
   94.2733   48.7861  267.5115 C   0  0  0  0  0  0  0  0  0  0  0  0
   93.8958   47.5470  266.9048 C   0  0  0  0  0  0  0  0  0  0  0  0
   92.5700   47.3545  266.4704 C   0  0  0  0  0  0  0  0  0  0  0  0
   93.5906   51.1033  268.3373 C   0  0  0  0  0  0  0  0  0  0  0  0
   94.5701   51.9485  267.7930 C   0  0  0  0  0  0  0  0  0  0  0  0
   94.8766   53.1828  268.3625 C   0  0  0  0  0  0  0  0  0  0  0  0
   94.1744   53.5766  269.5033 C   0  0  0  0  0  0  0  0  0  0  0  0
   93.2113   52.6777  270.0810 C   0  0  0  0  0  0  0  0  0  0  0  0
   92.8959   51.4563  269.4914 C   0  0  0  0  0  0  0  0  0  0  0  0
   94.1946   54.7419  270.3240 C   0  0  0  0  0  0  0  0  0  0  0  0
   93.3205   54.5041  271.3412 C   0  0  0  0  0  0  0  0  0  0  0  0
   92.7610   53.2794  271.2415 N   0  0  0  0  0  0  0  0  0  0  0  0
   94.7935   46.5354  266.7547 N   0  0  0  0  0  0  0  0  0  0  0  0
   96.0594   46.7465  267.1790 C   0  0  0  0  0  0  0  0  0  0  0  0
   96.4464   47.9594  267.7361 C   0  0  0  0  0  0  0  0  0  0  0  0
   95.5618   48.9678  267.9325 N   0  0  0  0  0  0  0  0  0  0  0  0
   91.8513   52.7306  272.2454 C   0  0  0  0  0  0  0  0  0  0  0  0
   89.7124   47.3504  265.2983 C   0  0  0  0  0  0  0  0  0  0  0  0
   88.4077   46.8215  265.3936 C   0  0  0  0  0  0  0  0  0  0  0  0
   87.8831   46.1009  264.3157 C   0  0  0  0  0  0  0  0  0  0  0  0
   88.6642   45.9359  263.1759 C   0  0  0  0  0  0  0  0  0  0  0  0
   89.9193   46.4305  263.0542 N   0  0  0  0  0  0  0  0  0  0  0  0
   90.4194   47.1175  264.1115 C   0  0  0  0  0  0  0  0  0  0  0  0
   87.5851   46.9636  266.5914 C   0  0  0  0  0  0  0  0  0  0  0  0
   86.9354   47.0770  267.5414 N   0  0  0  0  0  0  0  0  0  0  0  0
   91.2133   50.2834  267.4668 H   0  0  0  0  0  0  0  0  0  0  0  0
   92.1996   46.4501  266.9753 H   0  0  0  0  0  0  0  0  0  0  0  0
   92.6150   47.1765  265.3858 H   0  0  0  0  0  0  0  0  0  0  0  0
   95.1015   51.6331  266.9073 H   0  0  0  0  0  0  0  0  0  0  0  0
   95.6371   53.8180  267.9329 H   0  0  0  0  0  0  0  0  0  0  0  0
   92.1419   50.8080  269.9128 H   0  0  0  0  0  0  0  0  0  0  0  0
   94.7842   55.6336  270.1703 H   0  0  0  0  0  0  0  0  0  0  0  0
   93.1019   55.2084  272.1302 H   0  0  0  0  0  0  0  0  0  0  0  0
   96.7870   45.9542  267.0828 H   0  0  0  0  0  0  0  0  0  0  0  0
   97.4786   48.1024  268.0200 H   0  0  0  0  0  0  0  0  0  0  0  0
   91.6985   53.4697  273.0456 H   0  0  0  0  0  0  0  0  0  0  0  0
   90.8854   52.4948  271.7749 H   0  0  0  0  0  0  0  0  0  0  0  0
   92.2853   51.8139  272.6711 H   0  0  0  0  0  0  0  0  0  0  0  0
   86.8898   45.6801  264.3671 H   0  0  0  0  0  0  0  0  0  0  0  0
   88.2481   45.3850  262.3454 H   0  0  0  0  0  0  0  0  0  0  0  0
   91.4231   47.5085  264.0337 H   0  0  0  0  0  0  0  0  0  0  0  0
  1  2  2  0  0  0  0
  1 22  1  0  0  0  0
  2  3  1  0  0  0  0
  2  7  1  0  0  0  0
  3  4  2  0  0  0  0
  4  5  1  0  0  0  0
  4  8  1  0  0  0  0
  5 20  2  0  0  0  0
  5  6  1  0  0  0  0
  6  7  1  0  0  0  0
  6 17  2  0  0  0  0
  8  9  2  0  0  0  0
  8 13  1  0  0  0  0
  9 10  1  0  0  0  0
 10 11  2  0  0  0  0
 11 14  1  0  0  0  0
 11 12  1  0  0  0  0
 12 13  2  0  0  0  0
 12 16  1  0  0  0  0
 14 15  2  0  0  0  0
 15 16  1  0  0  0  0
 16 21  1  0  0  0  0
 17 18  1  0  0  0  0
 18 19  2  0  0  0  0
 19 20  1  0  0  0  0
 22 23  2  0  0  0  0
 22 27  1  0  0  0  0
 23 24  1  0  0  0  0
 23 28  1  0  0  0  0
 24 25  2  0  0  0  0
 25 26  1  0  0  0  0
 26 27  2  0  0  0  0
 28 29  3  0  0  0  0
  3 30  1  0  0  0  0
  7 31  1  0  0  0  0
  7 32  1  0  0  0  0
  9 33  1  0  0  0  0
 10 34  1  0  0  0  0
 13 35  1  0  0  0  0
 14 36  1  0  0  0  0
 15 37  1  0  0  0  0
 18 38  1  0  0  0  0
 19 39  1  0  0  0  0
 21 40  1  0  0  0  0
 21 41  1  0  0  0  0
 21 42  1  0  0  0  0
 24 43  1  0  0  0  0
 25 44  1  0  0  0  0
 27 45  1  0  0  0  0
M  END
> <ID>
33

> <IC50[uM]>
0.491

$$$$
33
  -OEChem-05192314313D
 Structure written by MMmdl.
 45 49  0     0  0  0  0  0  0999 V2000
   90.2783   48.1451  266.3142 N   0  0  0  0  0  0  0  0  0  0  0  0
   91.6169   48.3446  266.6738 C   0  0  0  0  0  0  0  0  0  0  0  0
   91.9745   49.5378  267.2907 C   0  0  0  0  0  0  0  0  0  0  0  0
   93.2869   49.8041  267.6905 C   0  0  0  0  0  0  0  0  0  0  0  0
   94.2733   48.7861  267.5115 C   0  0  0  0  0  0  0  0  0  0  0  0
   93.8958   47.5470  266.9048 C   0  0  0  0  0  0  0  0  0  0  0  0
   92.5700   47.3545  266.4704 C   0  0  0  0  0  0  0  0  0  0  0  0
   93.5906   51.1033  268.3373 C   0  0  0  0  0  0  0  0  0  0  0  0
   94.5701   51.9485  267.7930 C   0  0  0  0  0  0  0  0  0  0  0  0
   94.8766   53.1828  268.3625 C   0  0  0  0  0  0  0  0  0  0  0  0
   94.1744   53.5766  269.5033 C   0  0  0  0  0  0  0  0  0  0  0  0
   93.2113   52.6777  270.0810 C   0  0  0  0  0  0  0  0  0  0  0  0
   92.8959   51.4563  269.4914 C   0  0  0  0  0  0  0  0  0  0  0  0
   94.1946   54.7419  270.3240 C   0  0  0  0  0  0  0  0  0  0  0  0
   93.3205   54.5041  271.3412 C   0  0  0  0  0  0  0  0  0  0  0  0
   92.7610   53.2794  271.2415 N   0  0  0  0  0  0  0  0  0  0  0  0
   94.7935   46.5354  266.7547 N   0  0  0  0  0  0  0  0  0  0  0  0
   96.0594   46.7465  267.1790 C   0  0  0  0  0  0  0  0  0  0  0  0
   96.4464   47.9594  267.7361 C   0  0  0  0  0  0  0  0  0  0  0  0
   95.5618   48.9678  267.9325 N   0  0  0  0  0  0  0  0  0  0  0  0
   91.8513   52.7306  272.2454 C   0  0  0  0  0  0  0  0  0  0  0  0
   89.7124   47.3504  265.2983 C   0  0  0  0  0  0  0  0  0  0  0  0
   88.4077   46.8215  265.3936 C   0  0  0  0  0  0  0  0  0  0  0  0
   87.8831   46.1009  264.3157 C   0  0  0  0  0  0  0  0  0  0  0  0
   88.6642   45.9359  263.1759 C   0  0  0  0  0  0  0  0  0  0  0  0
   89.9193   46.4305  263.0542 N   0  0  0  0  0  0  0  0  0  0  0  0
   90.4194   47.1175  264.1115 C   0  0  0  0  0  0  0  0  0  0  0  0
   87.5851   46.9636  266.5914 C   0  0  0  0  0  0  0  0  0  0  0  0
   86.9354   47.0770  267.5414 N   0  0  0  0  0  0  0  0  0  0  0  0
   91.6977   50.3403  266.5912 H   0  0  0  0  0  0  0  0  0  0  0  0
   91.3561   49.6122  268.1974 H   0  0  0  0  0  0  0  0  0  0  0  0
   92.2933   46.4342  265.9776 H   0  0  0  0  0  0  0  0  0  0  0  0
   95.1015   51.6331  266.9073 H   0  0  0  0  0  0  0  0  0  0  0  0
   95.6371   53.8180  267.9329 H   0  0  0  0  0  0  0  0  0  0  0  0
   92.1419   50.8080  269.9128 H   0  0  0  0  0  0  0  0  0  0  0  0
   94.7842   55.6336  270.1703 H   0  0  0  0  0  0  0  0  0  0  0  0
   93.1019   55.2084  272.1302 H   0  0  0  0  0  0  0  0  0  0  0  0
   96.7870   45.9542  267.0828 H   0  0  0  0  0  0  0  0  0  0  0  0
   97.4786   48.1024  268.0200 H   0  0  0  0  0  0  0  0  0  0  0  0
   91.6985   53.4697  273.0456 H   0  0  0  0  0  0  0  0  0  0  0  0
   90.8854   52.4948  271.7749 H   0  0  0  0  0  0  0  0  0  0  0  0
   92.2853   51.8139  272.6711 H   0  0  0  0  0  0  0  0  0  0  0  0
   86.8898   45.6801  264.3671 H   0  0  0  0  0  0  0  0  0  0  0  0
   88.2481   45.3850  262.3454 H   0  0  0  0  0  0  0  0  0  0  0  0
   91.4231   47.5085  264.0337 H   0  0  0  0  0  0  0  0  0  0  0  0
  1  2  2  0  0  0  0
  1 22  1  0  0  0  0
  2  3  1  0  0  0  0
  2  7  1  0  0  0  0
  3  4  1  0  0  0  0
  4  5  2  0  0  0  0
  4  8  1  0  0  0  0
  5 20  1  0  0  0  0
  5  6  1  0  0  0  0
  6  7  2  0  0  0  0
  6 17  1  0  0  0  0
  8  9  2  0  0  0  0
  8 13  1  0  0  0  0
  9 10  1  0  0  0  0
 10 11  2  0  0  0  0
 11 14  1  0  0  0  0
 11 12  1  0  0  0  0
 12 13  2  0  0  0  0
 12 16  1  0  0  0  0
 14 15  2  0  0  0  0
 15 16  1  0  0  0  0
 16 21  1  0  0  0  0
 17 18  2  0  0  0  0
 18 19  1  0  0  0  0
 19 20  2  0  0  0  0
 22 23  2  0  0  0  0
 22 27  1  0  0  0  0
 23 24  1  0  0  0  0
 23 28  1  0  0  0  0
 24 25  2  0  0  0  0
 25 26  1  0  0  0  0
 26 27  2  0  0  0  0
 28 29  3  0  0  0  0
  3 30  1  0  0  0  0
  3 31  1  0  0  0  0
  7 32  1  0  0  0  0
  9 33  1  0  0  0  0
 10 34  1  0  0  0  0
 13 35  1  0  0  0  0
 14 36  1  0  0  0  0
 15 37  1  0  0  0  0
 18 38  1  0  0  0  0
 19 39  1  0  0  0  0
 21 40  1  0  0  0  0
 21 41  1  0  0  0  0
 21 42  1  0  0  0  0
 24 43  1  0  0  0  0
 25 44  1  0  0  0  0
 27 45  1  0  0  0  0
M  END
> <ID>
33

> <IC50[uM]>
0.491

$$$$
33
  -OEChem-05192314313D
 Structure written by MMmdl.
 45 49  0     1  0  0  0  0  0999 V2000
   90.2783   48.1451  266.3142 N   0  0  0  0  0  0  0  0  0  0  0  0
   91.6169   48.3446  266.6738 C   0  0  0  0  0  0  0  0  0  0  0  0
   91.9745   49.5378  267.2907 C   0  0  0  0  0  0  0  0  0  0  0  0
   93.2869   49.8041  267.6905 C   0  0  0  0  0  0  0  0  0  0  0  0
   94.2733   48.7861  267.5115 C   0  0  0  0  0  0  0  0  0  0  0  0
   93.8958   47.5470  266.9048 C   0  0  0  0  0  0  0  0  0  0  0  0
   92.5700   47.3545  266.4704 C   0  0  0  0  0  0  0  0  0  0  0  0
   93.5906   51.1033  268.3373 C   0  0  0  0  0  0  0  0  0  0  0  0
   94.5701   51.9485  267.7930 C   0  0  0  0  0  0  0  0  0  0  0  0
   94.8766   53.1828  268.3625 C   0  0  0  0  0  0  0  0  0  0  0  0
   94.1744   53.5766  269.5033 C   0  0  0  0  0  0  0  0  0  0  0  0
   93.2113   52.6777  270.0810 C   0  0  0  0  0  0  0  0  0  0  0  0
   92.8959   51.4563  269.4914 C   0  0  0  0  0  0  0  0  0  0  0  0
   94.1946   54.7419  270.3240 C   0  0  0  0  0  0  0  0  0  0  0  0
   93.3205   54.5041  271.3412 C   0  0  0  0  0  0  0  0  0  0  0  0
   92.7610   53.2794  271.2415 N   0  0  0  0  0  0  0  0  0  0  0  0
   94.7935   46.5354  266.7547 N   0  0  0  0  0  0  0  0  0  0  0  0
   96.0594   46.7465  267.1790 C   0  0  0  0  0  0  0  0  0  0  0  0
   96.4464   47.9594  267.7361 C   0  0  0  0  0  0  0  0  0  0  0  0
   95.5618   48.9678  267.9325 N   0  0  0  0  0  0  0  0  0  0  0  0
   91.8513   52.7306  272.2454 C   0  0  0  0  0  0  0  0  0  0  0  0
   89.7124   47.3504  265.2983 C   0  0  0  0  0  0  0  0  0  0  0  0
   88.4077   46.8215  265.3936 C   0  0  3  0  0  0  0  0  0  0  0  0
   87.8831   46.1009  264.3157 C   0  0  0  0  0  0  0  0  0  0  0  0
   88.6642   45.9359  263.1759 C   0  0  0  0  0  0  0  0  0  0  0  0
   89.9193   46.4305  263.0542 N   0  0  0  0  0  0  0  0  0  0  0  0
   90.4194   47.1175  264.1115 C   0  0  0  0  0  0  0  0  0  0  0  0
   87.5851   46.9636  266.5914 C   0  0  0  0  0  0  0  0  0  0  0  0
   86.9354   47.0770  267.5414 N   0  0  0  0  0  0  0  0  0  0  0  0
   91.2133   50.2834  267.4668 H   0  0  0  0  0  0  0  0  0  0  0  0
   92.2933   46.4342  265.9776 H   0  0  0  0  0  0  0  0  0  0  0  0
   95.1015   51.6331  266.9073 H   0  0  0  0  0  0  0  0  0  0  0  0
   95.6371   53.8180  267.9329 H   0  0  0  0  0  0  0  0  0  0  0  0
   92.1419   50.8080  269.9128 H   0  0  0  0  0  0  0  0  0  0  0  0
   94.7842   55.6336  270.1703 H   0  0  0  0  0  0  0  0  0  0  0  0
   93.1019   55.2084  272.1302 H   0  0  0  0  0  0  0  0  0  0  0  0
   96.7870   45.9542  267.0828 H   0  0  0  0  0  0  0  0  0  0  0  0
   97.4786   48.1024  268.0200 H   0  0  0  0  0  0  0  0  0  0  0  0
   91.6985   53.4697  273.0456 H   0  0  0  0  0  0  0  0  0  0  0  0
   90.8854   52.4948  271.7749 H   0  0  0  0  0  0  0  0  0  0  0  0
   92.2853   51.8139  272.6711 H   0  0  0  0  0  0  0  0  0  0  0  0
   87.9901   47.7538  264.9855 H   0  0  0  0  0  0  0  0  0  0  0  0
   86.8898   45.6801  264.3671 H   0  0  0  0  0  0  0  0  0  0  0  0
   88.2481   45.3850  262.3454 H   0  0  0  0  0  0  0  0  0  0  0  0
   91.4231   47.5085  264.0337 H   0  0  0  0  0  0  0  0  0  0  0  0
  1  2  1  0  0  0  0
  1 22  2  0  0  0  0
  2  3  2  0  0  0  0
  2  7  1  0  0  0  0
  3  4  1  0  0  0  0
  4  5  2  0  0  0  0
  4  8  1  0  0  0  0
  5 20  1  0  0  0  0
  5  6  1  0  0  0  0
  6  7  2  0  0  0  0
  6 17  1  0  0  0  0
  8  9  2  0  0  0  0
  8 13  1  0  0  0  0
  9 10  1  0  0  0  0
 10 11  2  0  0  0  0
 11 14  1  0  0  0  0
 11 12  1  0  0  0  0
 12 13  2  0  0  0  0
 12 16  1  0  0  0  0
 14 15  2  0  0  0  0
 15 16  1  0  0  0  0
 16 21  1  0  0  0  0
 17 18  2  0  0  0  0
 18 19  1  0  0  0  0
 19 20  2  0  0  0  0
 22 23  1  0  0  0  0
 22 27  1  0  0  0  0
 23 24  1  0  0  0  0
 23 28  1  0  0  0  0
 24 25  2  0  0  0  0
 25 26  1  0  0  0  0
 26 27  2  0  0  0  0
 28 29  3  0  0  0  0
  3 30  1  0  0  0  0
  7 31  1  0  0  0  0
  9 32  1  0  0  0  0
 10 33  1  0  0  0  0
 13 34  1  0  0  0  0
 14 35  1  0  0  0  0
 15 36  1  0  0  0  0
 18 37  1  0  0  0  0
 19 38  1  0  0  0  0
 21 39  1  0  0  0  0
 21 40  1  0  0  0  0
 21 41  1  0  0  0  0
 23 42  1  0  0  0  0
 24 43  1  0  0  0  0
 25 44  1  0  0  0  0
 27 45  1  0  0  0  0
M  END
> <ID>
33

> <IC50[uM]>
0.491

$$$$
33
  -OEChem-05192314313D
 Structure written by MMmdl.
 45 49  0     0  0  0  0  0  0999 V2000
   90.2783   48.1451  266.3142 N   0  0  0  0  0  0  0  0  0  0  0  0
   91.6169   48.3446  266.6738 C   0  0  0  0  0  0  0  0  0  0  0  0
   91.9745   49.5378  267.2907 C   0  0  0  0  0  0  0  0  0  0  0  0
   93.2869   49.8041  267.6905 C   0  0  0  0  0  0  0  0  0  0  0  0
   94.2733   48.7861  267.5115 C   0  0  0  0  0  0  0  0  0  0  0  0
   93.8958   47.5470  266.9048 C   0  0  0  0  0  0  0  0  0  0  0  0
   92.5700   47.3545  266.4704 C   0  0  0  0  0  0  0  0  0  0  0  0
   93.5906   51.1033  268.3373 C   0  0  0  0  0  0  0  0  0  0  0  0
   94.5701   51.9485  267.7930 C   0  0  0  0  0  0  0  0  0  0  0  0
   94.8766   53.1828  268.3625 C   0  0  0  0  0  0  0  0  0  0  0  0
   94.1744   53.5766  269.5033 C   0  0  0  0  0  0  0  0  0  0  0  0
   93.2113   52.6777  270.0810 C   0  0  0  0  0  0  0  0  0  0  0  0
   92.8959   51.4563  269.4914 C   0  0  0  0  0  0  0  0  0  0  0  0
   94.1946   54.7419  270.3240 C   0  0  0  0  0  0  0  0  0  0  0  0
   93.3205   54.5041  271.3412 C   0  0  0  0  0  0  0  0  0  0  0  0
   92.7610   53.2794  271.2415 N   0  0  0  0  0  0  0  0  0  0  0  0
   94.7935   46.5354  266.7547 N   0  0  0  0  0  0  0  0  0  0  0  0
   96.0594   46.7465  267.1790 C   0  0  0  0  0  0  0  0  0  0  0  0
   96.4464   47.9594  267.7361 C   0  0  0  0  0  0  0  0  0  0  0  0
   95.5618   48.9678  267.9325 N   0  0  0  0  0  0  0  0  0  0  0  0
   91.8513   52.7306  272.2454 C   0  0  0  0  0  0  0  0  0  0  0  0
   89.7124   47.3504  265.2983 C   0  0  0  0  0  0  0  0  0  0  0  0
   88.4077   46.8215  265.3936 C   0  0  0  0  0  0  0  0  0  0  0  0
   87.8831   46.1009  264.3157 C   0  0  0  0  0  0  0  0  0  0  0  0
   88.6642   45.9359  263.1759 C   0  0  0  0  0  0  0  0  0  0  0  0
   89.9193   46.4305  263.0542 N   0  0  0  0  0  0  0  0  0  0  0  0
   90.4194   47.1175  264.1115 C   0  0  0  0  0  0  0  0  0  0  0  0
   87.5851   46.9636  266.5914 C   0  0  0  0  0  0  0  0  0  0  0  0
   86.9354   47.0770  267.5414 N   0  0  0  0  0  0  0  0  0  0  0  0
   91.2133   50.2834  267.4668 H   0  0  0  0  0  0  0  0  0  0  0  0
   92.2933   46.4342  265.9776 H   0  0  0  0  0  0  0  0  0  0  0  0
   95.1015   51.6331  266.9073 H   0  0  0  0  0  0  0  0  0  0  0  0
   95.6371   53.8180  267.9329 H   0  0  0  0  0  0  0  0  0  0  0  0
   92.1419   50.8080  269.9128 H   0  0  0  0  0  0  0  0  0  0  0  0
   94.7842   55.6336  270.1703 H   0  0  0  0  0  0  0  0  0  0  0  0
   93.1019   55.2084  272.1302 H   0  0  0  0  0  0  0  0  0  0  0  0
   96.7870   45.9542  267.0828 H   0  0  0  0  0  0  0  0  0  0  0  0
   97.4786   48.1024  268.0200 H   0  0  0  0  0  0  0  0  0  0  0  0
   91.6985   53.4697  273.0456 H   0  0  0  0  0  0  0  0  0  0  0  0
   90.8854   52.4948  271.7749 H   0  0  0  0  0  0  0  0  0  0  0  0
   92.2853   51.8139  272.6711 H   0  0  0  0  0  0  0  0  0  0  0  0
   86.8898   45.6801  264.3671 H   0  0  0  0  0  0  0  0  0  0  0  0
   88.7527   44.8497  263.0262 H   0  0  0  0  0  0  0  0  0  0  0  0
   88.0863   46.3741  262.3488 H   0  0  0  0  0  0  0  0  0  0  0  0
   91.4231   47.5085  264.0337 H   0  0  0  0  0  0  0  0  0  0  0  0
  1  2  1  0  0  0  0
  1 22  2  0  0  0  0
  2  3  2  0  0  0  0
  2  7  1  0  0  0  0
  3  4  1  0  0  0  0
  4  5  2  0  0  0  0
  4  8  1  0  0  0  0
  5 20  1  0  0  0  0
  5  6  1  0  0  0  0
  6  7  2  0  0  0  0
  6 17  1  0  0  0  0
  8  9  2  0  0  0  0
  8 13  1  0  0  0  0
  9 10  1  0  0  0  0
 10 11  2  0  0  0  0
 11 14  1  0  0  0  0
 11 12  1  0  0  0  0
 12 13  2  0  0  0  0
 12 16  1  0  0  0  0
 14 15  2  0  0  0  0
 15 16  1  0  0  0  0
 16 21  1  0  0  0  0
 17 18  2  0  0  0  0
 18 19  1  0  0  0  0
 19 20  2  0  0  0  0
 22 23  1  0  0  0  0
 22 27  1  0  0  0  0
 23 24  2  0  0  0  0
 23 28  1  0  0  0  0
 24 25  1  0  0  0  0
 25 26  1  0  0  0  0
 26 27  2  0  0  0  0
 28 29  3  0  0  0  0
  3 30  1  0  0  0  0
  7 31  1  0  0  0  0
  9 32  1  0  0  0  0
 10 33  1  0  0  0  0
 13 34  1  0  0  0  0
 14 35  1  0  0  0  0
 15 36  1  0  0  0  0
 18 37  1  0  0  0  0
 19 38  1  0  0  0  0
 21 39  1  0  0  0  0
 21 40  1  0  0  0  0
 21 41  1  0  0  0  0
 24 42  1  0  0  0  0
 25 43  1  0  0  0  0
 25 44  1  0  0  0  0
 27 45  1  0  0  0  0
M  END
> <ID>
33

> <IC50[uM]>
0.491

$$$$
33
  -OEChem-05192314313D
 Structure written by MMmdl.
 45 49  0     0  0  0  0  0  0999 V2000
   90.2783   48.1451  266.3142 N   0  0  0  0  0  0  0  0  0  0  0  0
   91.6169   48.3446  266.6738 C   0  0  0  0  0  0  0  0  0  0  0  0
   91.9745   49.5378  267.2907 C   0  0  0  0  0  0  0  0  0  0  0  0
   93.2869   49.8041  267.6905 C   0  0  0  0  0  0  0  0  0  0  0  0
   94.2733   48.7861  267.5115 C   0  0  0  0  0  0  0  0  0  0  0  0
   93.8958   47.5470  266.9048 C   0  0  0  0  0  0  0  0  0  0  0  0
   92.5700   47.3545  266.4704 C   0  0  0  0  0  0  0  0  0  0  0  0
   93.5906   51.1033  268.3373 C   0  0  0  0  0  0  0  0  0  0  0  0
   94.5701   51.9485  267.7930 C   0  0  0  0  0  0  0  0  0  0  0  0
   94.8766   53.1828  268.3625 C   0  0  0  0  0  0  0  0  0  0  0  0
   94.1744   53.5766  269.5033 C   0  0  0  0  0  0  0  0  0  0  0  0
   93.2113   52.6777  270.0810 C   0  0  0  0  0  0  0  0  0  0  0  0
   92.8959   51.4563  269.4914 C   0  0  0  0  0  0  0  0  0  0  0  0
   94.1946   54.7419  270.3240 C   0  0  0  0  0  0  0  0  0  0  0  0
   93.3205   54.5041  271.3412 C   0  0  0  0  0  0  0  0  0  0  0  0
   92.7610   53.2794  271.2415 N   0  0  0  0  0  0  0  0  0  0  0  0
   94.7935   46.5354  266.7547 N   0  0  0  0  0  0  0  0  0  0  0  0
   96.0594   46.7465  267.1790 C   0  0  0  0  0  0  0  0  0  0  0  0
   96.4464   47.9594  267.7361 C   0  0  0  0  0  0  0  0  0  0  0  0
   95.5618   48.9678  267.9325 N   0  0  0  0  0  0  0  0  0  0  0  0
   91.8513   52.7306  272.2454 C   0  0  0  0  0  0  0  0  0  0  0  0
   89.7124   47.3504  265.2983 C   0  0  0  0  0  0  0  0  0  0  0  0
   88.4077   46.8215  265.3936 C   0  0  0  0  0  0  0  0  0  0  0  0
   87.8831   46.1009  264.3157 C   0  0  0  0  0  0  0  0  0  0  0  0
   88.6642   45.9359  263.1759 C   0  0  0  0  0  0  0  0  0  0  0  0
   89.9193   46.4305  263.0542 N   0  0  0  0  0  0  0  0  0  0  0  0
   90.4194   47.1175  264.1115 C   0  0  0  0  0  0  0  0  0  0  0  0
   87.5851   46.9636  266.5914 C   0  0  0  0  0  0  0  0  0  0  0  0
   86.9354   47.0770  267.5414 N   0  0  0  0  0  0  0  0  0  0  0  0
   91.2133   50.2834  267.4668 H   0  0  0  0  0  0  0  0  0  0  0  0
   92.2933   46.4342  265.9776 H   0  0  0  0  0  0  0  0  0  0  0  0
   95.1015   51.6331  266.9073 H   0  0  0  0  0  0  0  0  0  0  0  0
   95.6371   53.8180  267.9329 H   0  0  0  0  0  0  0  0  0  0  0  0
   92.1419   50.8080  269.9128 H   0  0  0  0  0  0  0  0  0  0  0  0
   94.7842   55.6336  270.1703 H   0  0  0  0  0  0  0  0  0  0  0  0
   93.1019   55.2084  272.1302 H   0  0  0  0  0  0  0  0  0  0  0  0
   96.7870   45.9542  267.0828 H   0  0  0  0  0  0  0  0  0  0  0  0
   97.4786   48.1024  268.0200 H   0  0  0  0  0  0  0  0  0  0  0  0
   91.6985   53.4697  273.0456 H   0  0  0  0  0  0  0  0  0  0  0  0
   90.8854   52.4948  271.7749 H   0  0  0  0  0  0  0  0  0  0  0  0
   92.2853   51.8139  272.6711 H   0  0  0  0  0  0  0  0  0  0  0  0
   86.8898   45.6801  264.3671 H   0  0  0  0  0  0  0  0  0  0  0  0
   88.2481   45.3850  262.3454 H   0  0  0  0  0  0  0  0  0  0  0  0
   90.6854   48.1115  263.7227 H   0  0  0  0  0  0  0  0  0  0  0  0
   91.3339   46.5834  264.4089 H   0  0  0  0  0  0  0  0  0  0  0  0
  1  2  1  0  0  0  0
  1 22  2  0  0  0  0
  2  3  2  0  0  0  0
  2  7  1  0  0  0  0
  3  4  1  0  0  0  0
  4  5  2  0  0  0  0
  4  8  1  0  0  0  0
  5 20  1  0  0  0  0
  5  6  1  0  0  0  0
  6  7  2  0  0  0  0
  6 17  1  0  0  0  0
  8  9  2  0  0  0  0
  8 13  1  0  0  0  0
  9 10  1  0  0  0  0
 10 11  2  0  0  0  0
 11 14  1  0  0  0  0
 11 12  1  0  0  0  0
 12 13  2  0  0  0  0
 12 16  1  0  0  0  0
 14 15  2  0  0  0  0
 15 16  1  0  0  0  0
 16 21  1  0  0  0  0
 17 18  2  0  0  0  0
 18 19  1  0  0  0  0
 19 20  2  0  0  0  0
 22 23  1  0  0  0  0
 22 27  1  0  0  0  0
 23 24  2  0  0  0  0
 23 28  1  0  0  0  0
 24 25  1  0  0  0  0
 25 26  2  0  0  0  0
 26 27  1  0  0  0  0
 28 29  3  0  0  0  0
  3 30  1  0  0  0  0
  7 31  1  0  0  0  0
  9 32  1  0  0  0  0
 10 33  1  0  0  0  0
 13 34  1  0  0  0  0
 14 35  1  0  0  0  0
 15 36  1  0  0  0  0
 18 37  1  0  0  0  0
 19 38  1  0  0  0  0
 21 39  1  0  0  0  0
 21 40  1  0  0  0  0
 21 41  1  0  0  0  0
 24 42  1  0  0  0  0
 25 43  1  0  0  0  0
 27 44  1  0  0  0  0
 27 45  1  0  0  0  0
M  END
> <ID>
33

> <IC50[uM]>
0.491

$$$$
33
  -OEChem-05192314313D
 Structure written by MMmdl.
 45 49  0     1  0  0  0  0  0999 V2000
   90.2783   48.1451  266.3142 N   0  0  0  0  0  0  0  0  0  0  0  0
   91.6169   48.3446  266.6738 C   0  0  0  0  0  0  0  0  0  0  0  0
   91.9745   49.5378  267.2907 C   0  0  0  0  0  0  0  0  0  0  0  0
   93.2869   49.8041  267.6905 C   0  0  0  0  0  0  0  0  0  0  0  0
   94.2733   48.7861  267.5115 C   0  0  3  0  0  0  0  0  0  0  0  0
   93.8958   47.5470  266.9048 C   0  0  0  0  0  0  0  0  0  0  0  0
   92.5700   47.3545  266.4704 C   0  0  0  0  0  0  0  0  0  0  0  0
   93.5906   51.1033  268.3373 C   0  0  0  0  0  0  0  0  0  0  0  0
   94.5701   51.9485  267.7930 C   0  0  0  0  0  0  0  0  0  0  0  0
   94.8766   53.1828  268.3625 C   0  0  0  0  0  0  0  0  0  0  0  0
   94.1744   53.5766  269.5033 C   0  0  0  0  0  0  0  0  0  0  0  0
   93.2113   52.6777  270.0810 C   0  0  0  0  0  0  0  0  0  0  0  0
   92.8959   51.4563  269.4914 C   0  0  0  0  0  0  0  0  0  0  0  0
   94.1946   54.7419  270.3240 C   0  0  0  0  0  0  0  0  0  0  0  0
   93.3205   54.5041  271.3412 C   0  0  0  0  0  0  0  0  0  0  0  0
   92.7610   53.2794  271.2415 N   0  0  0  0  0  0  0  0  0  0  0  0
   94.7935   46.5354  266.7547 N   0  0  0  0  0  0  0  0  0  0  0  0
   96.0594   46.7465  267.1790 C   0  0  0  0  0  0  0  0  0  0  0  0
   96.4464   47.9594  267.7361 C   0  0  0  0  0  0  0  0  0  0  0  0
   95.5618   48.9678  267.9325 N   0  0  0  0  0  0  0  0  0  0  0  0
   91.8513   52.7306  272.2454 C   0  0  0  0  0  0  0  0  0  0  0  0
   89.7124   47.3504  265.2983 C   0  0  0  0  0  0  0  0  0  0  0  0
   88.4077   46.8215  265.3936 C   0  0  0  0  0  0  0  0  0  0  0  0
   87.8831   46.1009  264.3157 C   0  0  0  0  0  0  0  0  0  0  0  0
   88.6642   45.9359  263.1759 C   0  0  0  0  0  0  0  0  0  0  0  0
   89.9193   46.4305  263.0542 N   0  0  0  0  0  0  0  0  0  0  0  0
   90.4194   47.1175  264.1115 C   0  0  0  0  0  0  0  0  0  0  0  0
   87.5851   46.9636  266.5914 C   0  0  0  0  0  0  0  0  0  0  0  0
   86.9354   47.0770  267.5414 N   0  0  0  0  0  0  0  0  0  0  0  0
   91.2133   50.2834  267.4668 H   0  0  0  0  0  0  0  0  0  0  0  0
   94.5300   49.1989  266.5247 H   0  0  0  0  0  0  0  0  0  0  0  0
   92.2933   46.4342  265.9776 H   0  0  0  0  0  0  0  0  0  0  0  0
   95.1015   51.6331  266.9073 H   0  0  0  0  0  0  0  0  0  0  0  0
   95.6371   53.8180  267.9329 H   0  0  0  0  0  0  0  0  0  0  0  0
   92.1419   50.8080  269.9128 H   0  0  0  0  0  0  0  0  0  0  0  0
   94.7842   55.6336  270.1703 H   0  0  0  0  0  0  0  0  0  0  0  0
   93.1019   55.2084  272.1302 H   0  0  0  0  0  0  0  0  0  0  0  0
   96.7870   45.9542  267.0828 H   0  0  0  0  0  0  0  0  0  0  0  0
   97.4786   48.1024  268.0200 H   0  0  0  0  0  0  0  0  0  0  0  0
   91.6985   53.4697  273.0456 H   0  0  0  0  0  0  0  0  0  0  0  0
   90.8854   52.4948  271.7749 H   0  0  0  0  0  0  0  0  0  0  0  0
   92.2853   51.8139  272.6711 H   0  0  0  0  0  0  0  0  0  0  0  0
   86.8898   45.6801  264.3671 H   0  0  0  0  0  0  0  0  0  0  0  0
   88.2481   45.3850  262.3454 H   0  0  0  0  0  0  0  0  0  0  0  0
   91.4231   47.5085  264.0337 H   0  0  0  0  0  0  0  0  0  0  0  0
  1  2  2  0  0  0  0
  1 22  1  0  0  0  0
  2  3  1  0  0  0  0
  2  7  1  0  0  0  0
  3  4  2  0  0  0  0
  4  5  1  0  0  0  0
  4  8  1  0  0  0  0
  5 20  1  0  0  0  0
  5  6  1  0  0  0  0
  6  7  2  0  0  0  0
  6 17  1  0  0  0  0
  8  9  2  0  0  0  0
  8 13  1  0  0  0  0
  9 10  1  0  0  0  0
 10 11  2  0  0  0  0
 11 14  1  0  0  0  0
 11 12  1  0  0  0  0
 12 13  2  0  0  0  0
 12 16  1  0  0  0  0
 14 15  2  0  0  0  0
 15 16  1  0  0  0  0
 16 21  1  0  0  0  0
 17 18  2  0  0  0  0
 18 19  1  0  0  0  0
 19 20  2  0  0  0  0
 22 23  2  0  0  0  0
 22 27  1  0  0  0  0
 23 24  1  0  0  0  0
 23 28  1  0  0  0  0
 24 25  2  0  0  0  0
 25 26  1  0  0  0  0
 26 27  2  0  0  0  0
 28 29  3  0  0  0  0
  3 30  1  0  0  0  0
  5 31  1  0  0  0  0
  7 32  1  0  0  0  0
  9 33  1  0  0  0  0
 10 34  1  0  0  0  0
 13 35  1  0  0  0  0
 14 36  1  0  0  0  0
 15 37  1  0  0  0  0
 18 38  1  0  0  0  0
 19 39  1  0  0  0  0
 21 40  1  0  0  0  0
 21 41  1  0  0  0  0
 21 42  1  0  0  0  0
 24 43  1  0  0  0  0
 25 44  1  0  0  0  0
 27 45  1  0  0  0  0
M  END
> <ID>
33

> <IC50[uM]>
0.491

$$$$
33
  -OEChem-05192314313D
 Structure written by MMmdl.
 45 49  0     0  0  0  0  0  0999 V2000
   90.2783   48.1451  266.3142 N   0  0  0  0  0  0  0  0  0  0  0  0
   91.6169   48.3446  266.6738 C   0  0  0  0  0  0  0  0  0  0  0  0
   91.9745   49.5378  267.2907 C   0  0  0  0  0  0  0  0  0  0  0  0
   93.2869   49.8041  267.6905 C   0  0  0  0  0  0  0  0  0  0  0  0
   94.2733   48.7861  267.5115 C   0  0  0  0  0  0  0  0  0  0  0  0
   93.8958   47.5470  266.9048 C   0  0  0  0  0  0  0  0  0  0  0  0
   92.5700   47.3545  266.4704 C   0  0  0  0  0  0  0  0  0  0  0  0
   93.5906   51.1033  268.3373 C   0  0  0  0  0  0  0  0  0  0  0  0
   94.5701   51.9485  267.7930 C   0  0  0  0  0  0  0  0  0  0  0  0
   94.8766   53.1828  268.3625 C   0  0  0  0  0  0  0  0  0  0  0  0
   94.1744   53.5766  269.5033 C   0  0  0  0  0  0  0  0  0  0  0  0
   93.2113   52.6777  270.0810 C   0  0  0  0  0  0  0  0  0  0  0  0
   92.8959   51.4563  269.4914 C   0  0  0  0  0  0  0  0  0  0  0  0
   94.1946   54.7419  270.3240 C   0  0  0  0  0  0  0  0  0  0  0  0
   93.3205   54.5041  271.3412 C   0  0  0  0  0  0  0  0  0  0  0  0
   92.7610   53.2794  271.2415 N   0  0  0  0  0  0  0  0  0  0  0  0
   94.7935   46.5354  266.7547 N   0  0  0  0  0  0  0  0  0  0  0  0
   96.0594   46.7465  267.1790 C   0  0  0  0  0  0  0  0  0  0  0  0
   96.4464   47.9594  267.7361 C   0  0  0  0  0  0  0  0  0  0  0  0
   95.5618   48.9678  267.9325 N   0  0  0  0  0  0  0  0  0  0  0  0
   91.8513   52.7306  272.2454 C   0  0  0  0  0  0  0  0  0  0  0  0
   89.7124   47.3504  265.2983 C   0  0  0  0  0  0  0  0  0  0  0  0
   88.4077   46.8215  265.3936 C   0  0  0  0  0  0  0  0  0  0  0  0
   87.8831   46.1009  264.3157 C   0  0  0  0  0  0  0  0  0  0  0  0
   88.6642   45.9359  263.1759 C   0  0  0  0  0  0  0  0  0  0  0  0
   89.9193   46.4305  263.0542 N   0  0  0  0  0  0  0  0  0  0  0  0
   90.4194   47.1175  264.1115 C   0  0  0  0  0  0  0  0  0  0  0  0
   87.5851   46.9636  266.5914 C   0  0  0  0  0  0  0  0  0  0  0  0
   86.9354   47.0770  267.5414 N   0  0  0  0  0  0  0  0  0  0  0  0
   91.2133   50.2834  267.4668 H   0  0  0  0  0  0  0  0  0  0  0  0
   92.2933   46.4342  265.9776 H   0  0  0  0  0  0  0  0  0  0  0  0
   95.1015   51.6331  266.9073 H   0  0  0  0  0  0  0  0  0  0  0  0
   95.6371   53.8180  267.9329 H   0  0  0  0  0  0  0  0  0  0  0  0
   92.1419   50.8080  269.9128 H   0  0  0  0  0  0  0  0  0  0  0  0
   94.7842   55.6336  270.1703 H   0  0  0  0  0  0  0  0  0  0  0  0
   93.1019   55.2084  272.1302 H   0  0  0  0  0  0  0  0  0  0  0  0
   96.7870   45.9542  267.0828 H   0  0  0  0  0  0  0  0  0  0  0  0
   96.8720   47.7247  268.7229 H   0  0  0  0  0  0  0  0  0  0  0  0
   97.2347   48.3622  267.0832 H   0  0  0  0  0  0  0  0  0  0  0  0
   91.6985   53.4697  273.0456 H   0  0  0  0  0  0  0  0  0  0  0  0
   90.8854   52.4948  271.7749 H   0  0  0  0  0  0  0  0  0  0  0  0
   92.2853   51.8139  272.6711 H   0  0  0  0  0  0  0  0  0  0  0  0
   86.8898   45.6801  264.3671 H   0  0  0  0  0  0  0  0  0  0  0  0
   88.2481   45.3850  262.3454 H   0  0  0  0  0  0  0  0  0  0  0  0
   91.4231   47.5085  264.0337 H   0  0  0  0  0  0  0  0  0  0  0  0
  1  2  2  0  0  0  0
  1 22  1  0  0  0  0
  2  3  1  0  0  0  0
  2  7  1  0  0  0  0
  3  4  2  0  0  0  0
  4  5  1  0  0  0  0
  4  8  1  0  0  0  0
  5 20  2  0  0  0  0
  5  6  1  0  0  0  0
  6  7  2  0  0  0  0
  6 17  1  0  0  0  0
  8  9  2  0  0  0  0
  8 13  1  0  0  0  0
  9 10  1  0  0  0  0
 10 11  2  0  0  0  0
 11 14  1  0  0  0  0
 11 12  1  0  0  0  0
 12 13  2  0  0  0  0
 12 16  1  0  0  0  0
 14 15  2  0  0  0  0
 15 16  1  0  0  0  0
 16 21  1  0  0  0  0
 17 18  2  0  0  0  0
 18 19  1  0  0  0  0
 19 20  1  0  0  0  0
 22 23  2  0  0  0  0
 22 27  1  0  0  0  0
 23 24  1  0  0  0  0
 23 28  1  0  0  0  0
 24 25  2  0  0  0  0
 25 26  1  0  0  0  0
 26 27  2  0  0  0  0
 28 29  3  0  0  0  0
  3 30  1  0  0  0  0
  7 31  1  0  0  0  0
  9 32  1  0  0  0  0
 10 33  1  0  0  0  0
 13 34  1  0  0  0  0
 14 35  1  0  0  0  0
 15 36  1  0  0  0  0
 18 37  1  0  0  0  0
 19 38  1  0  0  0  0
 19 39  1  0  0  0  0
 21 40  1  0  0  0  0
 21 41  1  0  0  0  0
 21 42  1  0  0  0  0
 24 43  1  0  0  0  0
 25 44  1  0  0  0  0
 27 45  1  0  0  0  0
M  END
> <ID>
33

> <IC50[uM]>
0.491

$$$$
