67
  -OEChem-05192314313D
 Structure written by MMmdl.
 47 51  0     0  0  0  0  0  0999 V2000
   93.1004   49.7216  267.7155 C   0  0  0  0  0  0  0  0  0  0  0  0
   92.5890   47.2745  266.3896 C   0  0  0  0  0  0  0  0  0  0  0  0
   91.5683   48.2049  266.5759 C   0  0  0  0  0  0  0  0  0  0  0  0
   91.8300   49.4026  267.2297 C   0  0  0  0  0  0  0  0  0  0  0  0
   93.8878   47.5400  266.8820 C   0  0  0  0  0  0  0  0  0  0  0  0
   94.1599   48.7802  267.5411 C   0  0  0  0  0  0  0  0  0  0  0  0
   95.4145   49.0346  268.0280 N   0  0  0  0  0  0  0  0  0  0  0  0
   96.3713   48.0905  267.8536 C   0  0  0  0  0  0  0  0  0  0  0  0
   96.0910   46.8809  267.2282 C   0  0  0  0  0  0  0  0  0  0  0  0
   94.8599   46.5971  266.7393 N   0  0  0  0  0  0  0  0  0  0  0  0
   93.2846   50.9778  268.4857 C   0  0  0  0  0  0  0  0  0  0  0  0
   94.2454   51.9199  268.1045 C   0  0  0  0  0  0  0  0  0  0  0  0
   94.4590   53.0941  268.8278 C   0  0  0  0  0  0  0  0  0  0  0  0
   92.5073   51.1876  269.6303 C   0  0  0  0  0  0  0  0  0  0  0  0
   90.2493   47.9429  266.1975 N   0  0  0  0  0  0  0  0  0  0  0  0
   89.6938   47.1846  265.1577 C   0  0  0  0  0  0  0  0  0  0  0  0
   90.3836   46.9926  263.9558 C   0  0  0  0  0  0  0  0  0  0  0  0
   89.8604   46.3316  262.8928 N   0  0  0  0  0  0  0  0  0  0  0  0
   88.6069   45.8318  263.0224 C   0  0  0  0  0  0  0  0  0  0  0  0
   87.8451   45.9660  264.1837 C   0  0  0  0  0  0  0  0  0  0  0  0
   88.3928   46.6627  265.2677 C   0  0  0  0  0  0  0  0  0  0  0  0
   87.4640   46.8258  266.7979 S   0  0  0  0  0  0  0  0  0  0  0  0
   87.6173   48.2190  267.2276 O   0  0  0  0  0  0  0  0  0  0  0  0
   86.1278   46.2817  266.5368 O   0  0  0  0  0  0  0  0  0  0  0  0
   88.2895   45.7139  268.0726 C   0  0  0  0  0  0  0  0  0  0  0  0
   92.7122   52.3451  270.3867 C   0  0  0  0  0  0  0  0  0  0  0  0
   93.6742   53.3006  269.9675 C   0  0  0  0  0  0  0  0  0  0  0  0
   93.6619   54.6467  271.0869 S   0  0  0  0  0  0  0  0  0  0  0  0
   92.4847   53.7751  272.0143 C   0  0  0  0  0  0  0  0  0  0  0  0
   92.0618   52.6441  271.5401 N   0  0  0  0  0  0  0  0  0  0  0  0
   92.0618   54.3270  273.1729 N   0  0  0  0  0  0  0  0  0  0  0  0
   92.3879   46.3500  265.8687 H   0  0  0  0  0  0  0  0  0  0  0  0
   91.0253   50.1098  267.3668 H   0  0  0  0  0  0  0  0  0  0  0  0
   97.3733   48.2821  268.2082 H   0  0  0  0  0  0  0  0  0  0  0  0
   96.8769   46.1468  267.1294 H   0  0  0  0  0  0  0  0  0  0  0  0
   94.8406   51.7329  267.2229 H   0  0  0  0  0  0  0  0  0  0  0  0
   95.2014   53.8155  268.5197 H   0  0  0  0  0  0  0  0  0  0  0  0
   91.7600   50.4657  269.9250 H   0  0  0  0  0  0  0  0  0  0  0  0
   89.5681   48.3823  266.7831 H   0  0  0  0  0  0  0  0  0  0  0  0
   91.3838   47.3909  263.8698 H   0  0  0  0  0  0  0  0  0  0  0  0
   88.1763   45.3032  262.1848 H   0  0  0  0  0  0  0  0  0  0  0  0
   86.8539   45.5415  264.2451 H   0  0  0  0  0  0  0  0  0  0  0  0
   87.7485   45.7855  269.0276 H   0  0  0  0  0  0  0  0  0  0  0  0
   88.2707   44.6728  267.7179 H   0  0  0  0  0  0  0  0  0  0  0  0
   89.3322   46.0332  268.2172 H   0  0  0  0  0  0  0  0  0  0  0  0
   92.5254   55.2016  273.3148 H   0  0  0  0  0  0  0  0  0  0  0  0
   91.0740   54.4766  273.1297 H   0  0  0  0  0  0  0  0  0  0  0  0
  1  4  2  0  0  0  0
  1  6  1  0  0  0  0
  1 11  1  0  0  0  0
  2  3  2  0  0  0  0
  2  5  1  0  0  0  0
  3  4  1  0  0  0  0
  3 15  1  0  0  0  0
  5  6  2  0  0  0  0
  5 10  1  0  0  0  0
  6  7  1  0  0  0  0
  7  8  2  0  0  0  0
  8  9  1  0  0  0  0
  9 10  2  0  0  0  0
 11 12  2  0  0  0  0
 11 14  1  0  0  0  0
 12 13  1  0  0  0  0
 13 27  2  0  0  0  0
 14 26  2  0  0  0  0
 15 16  1  0  0  0  0
 16 17  2  0  0  0  0
 16 21  1  0  0  0  0
 17 18  1  0  0  0  0
 18 19  2  0  0  0  0
 19 20  1  0  0  0  0
 20 21  2  0  0  0  0
 21 22  1  0  0  0  0
 22 23  2  0  0  0  0
 22 24  2  0  0  0  0
 22 25  1  0  0  0  0
 26 27  1  0  0  0  0
 26 30  1  0  0  0  0
 27 28  1  0  0  0  0
 28 29  1  0  0  0  0
 29 30  2  0  0  0  0
 29 31  1  0  0  0  0
  2 32  1  0  0  0  0
  4 33  1  0  0  0  0
  8 34  1  0  0  0  0
  9 35  1  0  0  0  0
 12 36  1  0  0  0  0
 13 37  1  0  0  0  0
 14 38  1  0  0  0  0
 15 39  1  0  0  0  0
 17 40  1  0  0  0  0
 19 41  1  0  0  0  0
 20 42  1  0  0  0  0
 25 43  1  0  0  0  0
 25 44  1  0  0  0  0
 25 45  1  0  0  0  0
 31 46  1  0  0  0  0
 31 47  1  0  0  0  0
M  END
> <ID>
67

> <IC50[uM]>
0.031

$$$$
67
  -OEChem-05192314313D
 Structure written by MMmdl.
 47 51  0     0  0  0  0  0  0999 V2000
   93.1004   49.7216  267.7155 C   0  0  0  0  0  0  0  0  0  0  0  0
   92.5890   47.2745  266.3896 C   0  0  0  0  0  0  0  0  0  0  0  0
   91.5683   48.2049  266.5759 C   0  0  0  0  0  0  0  0  0  0  0  0
   91.8300   49.4026  267.2297 C   0  0  0  0  0  0  0  0  0  0  0  0
   93.8878   47.5400  266.8820 C   0  0  0  0  0  0  0  0  0  0  0  0
   94.1599   48.7802  267.5411 C   0  0  0  0  0  0  0  0  0  0  0  0
   95.4145   49.0346  268.0280 N   0  0  0  0  0  0  0  0  0  0  0  0
   96.3713   48.0905  267.8536 C   0  0  0  0  0  0  0  0  0  0  0  0
   96.0910   46.8809  267.2282 C   0  0  0  0  0  0  0  0  0  0  0  0
   94.8599   46.5971  266.7393 N   0  0  0  0  0  0  0  0  0  0  0  0
   93.2846   50.9778  268.4857 C   0  0  0  0  0  0  0  0  0  0  0  0
   94.2454   51.9199  268.1045 C   0  0  0  0  0  0  0  0  0  0  0  0
   94.4590   53.0941  268.8278 C   0  0  0  0  0  0  0  0  0  0  0  0
   92.5073   51.1876  269.6303 C   0  0  0  0  0  0  0  0  0  0  0  0
   90.2493   47.9429  266.1975 N   0  0  0  0  0  0  0  0  0  0  0  0
   89.6938   47.1846  265.1577 C   0  0  0  0  0  0  0  0  0  0  0  0
   90.3836   46.9926  263.9558 C   0  0  0  0  0  0  0  0  0  0  0  0
   89.8604   46.3316  262.8928 N   0  0  0  0  0  0  0  0  0  0  0  0
   88.6069   45.8318  263.0224 C   0  0  0  0  0  0  0  0  0  0  0  0
   87.8451   45.9660  264.1837 C   0  0  0  0  0  0  0  0  0  0  0  0
   88.3928   46.6627  265.2677 C   0  0  0  0  0  0  0  0  0  0  0  0
   87.4640   46.8258  266.7979 S   0  0  0  0  0  0  0  0  0  0  0  0
   87.6173   48.2190  267.2276 O   0  0  0  0  0  0  0  0  0  0  0  0
   86.1278   46.2817  266.5368 O   0  0  0  0  0  0  0  0  0  0  0  0
   88.2895   45.7139  268.0726 C   0  0  0  0  0  0  0  0  0  0  0  0
   92.7122   52.3451  270.3867 C   0  0  0  0  0  0  0  0  0  0  0  0
   93.6742   53.3006  269.9675 C   0  0  0  0  0  0  0  0  0  0  0  0
   93.6619   54.6467  271.0869 S   0  0  0  0  0  0  0  0  0  0  0  0
   92.4847   53.7751  272.0143 C   0  0  0  0  0  0  0  0  0  0  0  0
   92.0618   52.6441  271.5401 N   0  0  0  0  0  0  0  0  0  0  0  0
   92.0618   54.3270  273.1729 N   0  0  0  0  0  0  0  0  0  0  0  0
   92.3879   46.3500  265.8687 H   0  0  0  0  0  0  0  0  0  0  0  0
   91.0253   50.1098  267.3668 H   0  0  0  0  0  0  0  0  0  0  0  0
   97.3733   48.2821  268.2082 H   0  0  0  0  0  0  0  0  0  0  0  0
   96.8769   46.1468  267.1294 H   0  0  0  0  0  0  0  0  0  0  0  0
   94.8406   51.7329  267.2229 H   0  0  0  0  0  0  0  0  0  0  0  0
   95.2014   53.8155  268.5197 H   0  0  0  0  0  0  0  0  0  0  0  0
   91.7600   50.4657  269.9250 H   0  0  0  0  0  0  0  0  0  0  0  0
   89.5681   48.3823  266.7831 H   0  0  0  0  0  0  0  0  0  0  0  0
   91.3838   47.3909  263.8698 H   0  0  0  0  0  0  0  0  0  0  0  0
   88.1763   45.3032  262.1848 H   0  0  0  0  0  0  0  0  0  0  0  0
   86.8539   45.5415  264.2451 H   0  0  0  0  0  0  0  0  0  0  0  0
   87.7485   45.7855  269.0276 H   0  0  0  0  0  0  0  0  0  0  0  0
   88.2707   44.6728  267.7179 H   0  0  0  0  0  0  0  0  0  0  0  0
   89.3322   46.0332  268.2172 H   0  0  0  0  0  0  0  0  0  0  0  0
   91.3576   52.0742  271.9635 H   0  0  0  0  0  0  0  0  0  0  0  0
   92.5033   55.2062  273.3521 H   0  0  0  0  0  0  0  0  0  0  0  0
  1  4  2  0  0  0  0
  1  6  1  0  0  0  0
  1 11  1  0  0  0  0
  2  3  2  0  0  0  0
  2  5  1  0  0  0  0
  3  4  1  0  0  0  0
  3 15  1  0  0  0  0
  5  6  2  0  0  0  0
  5 10  1  0  0  0  0
  6  7  1  0  0  0  0
  7  8  2  0  0  0  0
  8  9  1  0  0  0  0
  9 10  2  0  0  0  0
 11 12  2  0  0  0  0
 11 14  1  0  0  0  0
 12 13  1  0  0  0  0
 13 27  2  0  0  0  0
 14 26  2  0  0  0  0
 15 16  1  0  0  0  0
 16 17  2  0  0  0  0
 16 21  1  0  0  0  0
 17 18  1  0  0  0  0
 18 19  2  0  0  0  0
 19 20  1  0  0  0  0
 20 21  2  0  0  0  0
 21 22  1  0  0  0  0
 22 23  2  0  0  0  0
 22 24  2  0  0  0  0
 22 25  1  0  0  0  0
 26 27  1  0  0  0  0
 26 30  1  0  0  0  0
 27 28  1  0  0  0  0
 28 29  1  0  0  0  0
 29 30  1  0  0  0  0
 29 31  2  0  0  0  0
  2 32  1  0  0  0  0
  4 33  1  0  0  0  0
  8 34  1  0  0  0  0
  9 35  1  0  0  0  0
 12 36  1  0  0  0  0
 13 37  1  0  0  0  0
 14 38  1  0  0  0  0
 15 39  1  0  0  0  0
 17 40  1  0  0  0  0
 19 41  1  0  0  0  0
 20 42  1  0  0  0  0
 25 43  1  0  0  0  0
 25 44  1  0  0  0  0
 25 45  1  0  0  0  0
 30 46  1  0  0  0  0
 31 47  1  0  0  0  0
M  END
> <ID>
67

> <IC50[uM]>
0.031

$$$$
67
  -OEChem-05192314313D
 Structure written by MMmdl.
 47 51  0     0  0  0  0  0  0999 V2000
   93.1004   49.7216  267.7155 C   0  0  0  0  0  0  0  0  0  0  0  0
   92.5890   47.2745  266.3896 C   0  0  0  0  0  0  0  0  0  0  0  0
   91.5683   48.2049  266.5759 C   0  0  0  0  0  0  0  0  0  0  0  0
   91.8300   49.4026  267.2297 C   0  0  0  0  0  0  0  0  0  0  0  0
   93.8878   47.5400  266.8820 C   0  0  0  0  0  0  0  0  0  0  0  0
   94.1599   48.7802  267.5411 C   0  0  0  0  0  0  0  0  0  0  0  0
   95.4145   49.0346  268.0280 N   0  0  0  0  0  0  0  0  0  0  0  0
   96.3713   48.0905  267.8536 C   0  0  0  0  0  0  0  0  0  0  0  0
   96.0910   46.8809  267.2282 C   0  0  0  0  0  0  0  0  0  0  0  0
   94.8599   46.5971  266.7393 N   0  0  0  0  0  0  0  0  0  0  0  0
   93.2846   50.9778  268.4857 C   0  0  0  0  0  0  0  0  0  0  0  0
   94.2454   51.9199  268.1045 C   0  0  0  0  0  0  0  0  0  0  0  0
   94.4590   53.0941  268.8278 C   0  0  0  0  0  0  0  0  0  0  0  0
   92.5073   51.1876  269.6303 C   0  0  0  0  0  0  0  0  0  0  0  0
   90.2493   47.9429  266.1975 N   0  0  0  0  0  0  0  0  0  0  0  0
   89.6938   47.1846  265.1577 C   0  0  0  0  0  0  0  0  0  0  0  0
   90.3836   46.9926  263.9558 C   0  0  0  0  0  0  0  0  0  0  0  0
   89.8604   46.3316  262.8928 N   0  0  0  0  0  0  0  0  0  0  0  0
   88.6069   45.8318  263.0224 C   0  0  0  0  0  0  0  0  0  0  0  0
   87.8451   45.9660  264.1837 C   0  0  0  0  0  0  0  0  0  0  0  0
   88.3928   46.6627  265.2677 C   0  0  0  0  0  0  0  0  0  0  0  0
   87.4640   46.8258  266.7979 S   0  0  0  0  0  0  0  0  0  0  0  0
   87.6173   48.2190  267.2276 O   0  0  0  0  0  0  0  0  0  0  0  0
   86.1278   46.2817  266.5368 O   0  0  0  0  0  0  0  0  0  0  0  0
   88.2895   45.7139  268.0726 C   0  0  0  0  0  0  0  0  0  0  0  0
   92.7122   52.3451  270.3867 C   0  0  0  0  0  0  0  0  0  0  0  0
   93.6742   53.3006  269.9675 C   0  0  0  0  0  0  0  0  0  0  0  0
   93.6619   54.6467  271.0869 S   0  0  0  0  0  0  0  0  0  0  0  0
   92.4847   53.7751  272.0143 C   0  0  0  0  0  0  0  0  0  0  0  0
   92.0618   52.6441  271.5401 N   0  0  0  0  0  0  0  0  0  0  0  0
   92.0618   54.3270  273.1729 N   0  0  0  0  0  0  0  0  0  0  0  0
   92.3879   46.3500  265.8687 H   0  0  0  0  0  0  0  0  0  0  0  0
   91.0253   50.1098  267.3668 H   0  0  0  0  0  0  0  0  0  0  0  0
   97.3733   48.2821  268.2082 H   0  0  0  0  0  0  0  0  0  0  0  0
   96.8769   46.1468  267.1294 H   0  0  0  0  0  0  0  0  0  0  0  0
   94.6713   45.7245  266.2887 H   0  0  0  0  0  0  0  0  0  0  0  0
   94.8406   51.7329  267.2229 H   0  0  0  0  0  0  0  0  0  0  0  0
   95.2014   53.8155  268.5197 H   0  0  0  0  0  0  0  0  0  0  0  0
   91.7600   50.4657  269.9250 H   0  0  0  0  0  0  0  0  0  0  0  0
   91.3838   47.3909  263.8698 H   0  0  0  0  0  0  0  0  0  0  0  0
   88.1763   45.3032  262.1848 H   0  0  0  0  0  0  0  0  0  0  0  0
   86.8539   45.5415  264.2451 H   0  0  0  0  0  0  0  0  0  0  0  0
   87.7485   45.7855  269.0276 H   0  0  0  0  0  0  0  0  0  0  0  0
   88.2707   44.6728  267.7179 H   0  0  0  0  0  0  0  0  0  0  0  0
   89.3322   46.0332  268.2172 H   0  0  0  0  0  0  0  0  0  0  0  0
   92.5254   55.2016  273.3148 H   0  0  0  0  0  0  0  0  0  0  0  0
   91.0740   54.4766  273.1297 H   0  0  0  0  0  0  0  0  0  0  0  0
  1  4  2  0  0  0  0
  1  6  1  0  0  0  0
  1 11  1  0  0  0  0
  2  3  1  0  0  0  0
  2  5  2  0  0  0  0
  3  4  1  0  0  0  0
  3 15  2  3  0  0  0
  5  6  1  0  0  0  0
  5 10  1  0  0  0  0
  6  7  2  0  0  0  0
  7  8  1  0  0  0  0
  8  9  2  0  0  0  0
  9 10  1  0  0  0  0
 11 12  2  0  0  0  0
 11 14  1  0  0  0  0
 12 13  1  0  0  0  0
 13 27  2  0  0  0  0
 14 26  2  0  0  0  0
 15 16  1  0  0  0  0
 16 17  2  0  0  0  0
 16 21  1  0  0  0  0
 17 18  1  0  0  0  0
 18 19  2  0  0  0  0
 19 20  1  0  0  0  0
 20 21  2  0  0  0  0
 21 22  1  0  0  0  0
 22 23  2  0  0  0  0
 22 24  2  0  0  0  0
 22 25  1  0  0  0  0
 26 27  1  0  0  0  0
 26 30  1  0  0  0  0
 27 28  1  0  0  0  0
 28 29  1  0  0  0  0
 29 30  2  0  0  0  0
 29 31  1  0  0  0  0
  2 32  1  0  0  0  0
  4 33  1  0  0  0  0
  8 34  1  0  0  0  0
  9 35  1  0  0  0  0
 10 36  1  0  0  0  0
 12 37  1  0  0  0  0
 13 38  1  0  0  0  0
 14 39  1  0  0  0  0
 17 40  1  0  0  0  0
 19 41  1  0  0  0  0
 20 42  1  0  0  0  0
 25 43  1  0  0  0  0
 25 44  1  0  0  0  0
 25 45  1  0  0  0  0
 31 46  1  0  0  0  0
 31 47  1  0  0  0  0
M  END
> <ID>
67

> <IC50[uM]>
0.031

$$$$
67
  -OEChem-05192314313D
 Structure written by MMmdl.
 47 51  0     0  0  0  0  0  0999 V2000
   93.1004   49.7216  267.7155 C   0  0  0  0  0  0  0  0  0  0  0  0
   92.5890   47.2745  266.3896 C   0  0  0  0  0  0  0  0  0  0  0  0
   91.5683   48.2049  266.5759 C   0  0  0  0  0  0  0  0  0  0  0  0
   91.8300   49.4026  267.2297 C   0  0  0  0  0  0  0  0  0  0  0  0
   93.8878   47.5400  266.8820 C   0  0  0  0  0  0  0  0  0  0  0  0
   94.1599   48.7802  267.5411 C   0  0  0  0  0  0  0  0  0  0  0  0
   95.4145   49.0346  268.0280 N   0  0  0  0  0  0  0  0  0  0  0  0
   96.3713   48.0905  267.8536 C   0  0  0  0  0  0  0  0  0  0  0  0
   96.0910   46.8809  267.2282 C   0  0  0  0  0  0  0  0  0  0  0  0
   94.8599   46.5971  266.7393 N   0  0  0  0  0  0  0  0  0  0  0  0
   93.2846   50.9778  268.4857 C   0  0  0  0  0  0  0  0  0  0  0  0
   94.2454   51.9199  268.1045 C   0  0  0  0  0  0  0  0  0  0  0  0
   94.4590   53.0941  268.8278 C   0  0  0  0  0  0  0  0  0  0  0  0
   92.5073   51.1876  269.6303 C   0  0  0  0  0  0  0  0  0  0  0  0
   90.2493   47.9429  266.1975 N   0  0  0  0  0  0  0  0  0  0  0  0
   89.6938   47.1846  265.1577 C   0  0  0  0  0  0  0  0  0  0  0  0
   90.3836   46.9926  263.9558 C   0  0  0  0  0  0  0  0  0  0  0  0
   89.8604   46.3316  262.8928 N   0  0  0  0  0  0  0  0  0  0  0  0
   88.6069   45.8318  263.0224 C   0  0  0  0  0  0  0  0  0  0  0  0
   87.8451   45.9660  264.1837 C   0  0  0  0  0  0  0  0  0  0  0  0
   88.3928   46.6627  265.2677 C   0  0  0  0  0  0  0  0  0  0  0  0
   87.4640   46.8258  266.7979 S   0  0  0  0  0  0  0  0  0  0  0  0
   87.6173   48.2190  267.2276 O   0  0  0  0  0  0  0  0  0  0  0  0
   86.1278   46.2817  266.5368 O   0  0  0  0  0  0  0  0  0  0  0  0
   88.2895   45.7139  268.0726 C   0  0  0  0  0  0  0  0  0  0  0  0
   92.7122   52.3451  270.3867 C   0  0  0  0  0  0  0  0  0  0  0  0
   93.6742   53.3006  269.9675 C   0  0  0  0  0  0  0  0  0  0  0  0
   93.6619   54.6467  271.0869 S   0  0  0  0  0  0  0  0  0  0  0  0
   92.4847   53.7751  272.0143 C   0  0  0  0  0  0  0  0  0  0  0  0
   92.0618   52.6441  271.5401 N   0  0  0  0  0  0  0  0  0  0  0  0
   92.0618   54.3270  273.1729 N   0  0  0  0  0  0  0  0  0  0  0  0
   92.3879   46.3500  265.8687 H   0  0  0  0  0  0  0  0  0  0  0  0
   91.0253   50.1098  267.3668 H   0  0  0  0  0  0  0  0  0  0  0  0
   97.3733   48.2821  268.2082 H   0  0  0  0  0  0  0  0  0  0  0  0
   96.8769   46.1468  267.1294 H   0  0  0  0  0  0  0  0  0  0  0  0
   94.6713   45.7245  266.2887 H   0  0  0  0  0  0  0  0  0  0  0  0
   94.8406   51.7329  267.2229 H   0  0  0  0  0  0  0  0  0  0  0  0
   95.2014   53.8155  268.5197 H   0  0  0  0  0  0  0  0  0  0  0  0
   91.7600   50.4657  269.9250 H   0  0  0  0  0  0  0  0  0  0  0  0
   91.3838   47.3909  263.8698 H   0  0  0  0  0  0  0  0  0  0  0  0
   88.1763   45.3032  262.1848 H   0  0  0  0  0  0  0  0  0  0  0  0
   86.8539   45.5415  264.2451 H   0  0  0  0  0  0  0  0  0  0  0  0
   87.7485   45.7855  269.0276 H   0  0  0  0  0  0  0  0  0  0  0  0
   88.2707   44.6728  267.7179 H   0  0  0  0  0  0  0  0  0  0  0  0
   89.3322   46.0332  268.2172 H   0  0  0  0  0  0  0  0  0  0  0  0
   91.3576   52.0742  271.9635 H   0  0  0  0  0  0  0  0  0  0  0  0
   92.5033   55.2062  273.3521 H   0  0  0  0  0  0  0  0  0  0  0  0
  1  4  2  0  0  0  0
  1  6  1  0  0  0  0
  1 11  1  0  0  0  0
  2  3  1  0  0  0  0
  2  5  2  0  0  0  0
  3  4  1  0  0  0  0
  3 15  2  3  0  0  0
  5  6  1  0  0  0  0
  5 10  1  0  0  0  0
  6  7  2  0  0  0  0
  7  8  1  0  0  0  0
  8  9  2  0  0  0  0
  9 10  1  0  0  0  0
 11 12  2  0  0  0  0
 11 14  1  0  0  0  0
 12 13  1  0  0  0  0
 13 27  2  0  0  0  0
 14 26  2  0  0  0  0
 15 16  1  0  0  0  0
 16 17  2  0  0  0  0
 16 21  1  0  0  0  0
 17 18  1  0  0  0  0
 18 19  2  0  0  0  0
 19 20  1  0  0  0  0
 20 21  2  0  0  0  0
 21 22  1  0  0  0  0
 22 23  2  0  0  0  0
 22 24  2  0  0  0  0
 22 25  1  0  0  0  0
 26 27  1  0  0  0  0
 26 30  1  0  0  0  0
 27 28  1  0  0  0  0
 28 29  1  0  0  0  0
 29 30  1  0  0  0  0
 29 31  2  0  0  0  0
  2 32  1  0  0  0  0
  4 33  1  0  0  0  0
  8 34  1  0  0  0  0
  9 35  1  0  0  0  0
 10 36  1  0  0  0  0
 12 37  1  0  0  0  0
 13 38  1  0  0  0  0
 14 39  1  0  0  0  0
 17 40  1  0  0  0  0
 19 41  1  0  0  0  0
 20 42  1  0  0  0  0
 25 43  1  0  0  0  0
 25 44  1  0  0  0  0
 25 45  1  0  0  0  0
 30 46  1  0  0  0  0
 31 47  1  0  0  0  0
M  END
> <ID>
67

> <IC50[uM]>
0.031

$$$$
67
  -OEChem-05192314313D
 Structure written by MMmdl.
 47 51  0     0  0  0  0  0  0999 V2000
   93.1004   49.7216  267.7155 C   0  0  0  0  0  0  0  0  0  0  0  0
   92.5890   47.2745  266.3896 C   0  0  0  0  0  0  0  0  0  0  0  0
   91.5683   48.2049  266.5759 C   0  0  0  0  0  0  0  0  0  0  0  0
   91.8300   49.4026  267.2297 C   0  0  0  0  0  0  0  0  0  0  0  0
   93.8878   47.5400  266.8820 C   0  0  0  0  0  0  0  0  0  0  0  0
   94.1599   48.7802  267.5411 C   0  0  0  0  0  0  0  0  0  0  0  0
   95.4145   49.0346  268.0280 N   0  0  0  0  0  0  0  0  0  0  0  0
   96.3713   48.0905  267.8536 C   0  0  0  0  0  0  0  0  0  0  0  0
   96.0910   46.8809  267.2282 C   0  0  0  0  0  0  0  0  0  0  0  0
   94.8599   46.5971  266.7393 N   0  0  0  0  0  0  0  0  0  0  0  0
   93.2846   50.9778  268.4857 C   0  0  0  0  0  0  0  0  0  0  0  0
   94.2454   51.9199  268.1045 C   0  0  0  0  0  0  0  0  0  0  0  0
   94.4590   53.0941  268.8278 C   0  0  0  0  0  0  0  0  0  0  0  0
   92.5073   51.1876  269.6303 C   0  0  0  0  0  0  0  0  0  0  0  0
   90.2493   47.9429  266.1975 N   0  0  0  0  0  0  0  0  0  0  0  0
   89.6938   47.1846  265.1577 C   0  0  0  0  0  0  0  0  0  0  0  0
   90.3836   46.9926  263.9558 C   0  0  0  0  0  0  0  0  0  0  0  0
   89.8604   46.3316  262.8928 N   0  0  0  0  0  0  0  0  0  0  0  0
   88.6069   45.8318  263.0224 C   0  0  0  0  0  0  0  0  0  0  0  0
   87.8451   45.9660  264.1837 C   0  0  0  0  0  0  0  0  0  0  0  0
   88.3928   46.6627  265.2677 C   0  0  0  0  0  0  0  0  0  0  0  0
   87.4640   46.8258  266.7979 S   0  0  0  0  0  0  0  0  0  0  0  0
   87.6173   48.2190  267.2276 O   0  0  0  0  0  0  0  0  0  0  0  0
   86.1278   46.2817  266.5368 O   0  0  0  0  0  0  0  0  0  0  0  0
   88.2895   45.7139  268.0726 C   0  0  0  0  0  0  0  0  0  0  0  0
   92.7122   52.3451  270.3867 C   0  0  0  0  0  0  0  0  0  0  0  0
   93.6742   53.3006  269.9675 C   0  0  0  0  0  0  0  0  0  0  0  0
   93.6619   54.6467  271.0869 S   0  0  0  0  0  0  0  0  0  0  0  0
   92.4847   53.7751  272.0143 C   0  0  0  0  0  0  0  0  0  0  0  0
   92.0618   52.6441  271.5401 N   0  0  0  0  0  0  0  0  0  0  0  0
   92.0618   54.3270  273.1729 N   0  0  0  0  0  0  0  0  0  0  0  0
   92.2556   46.3388  266.8622 H   0  0  0  0  0  0  0  0  0  0  0  0
   92.6859   47.1229  265.3044 H   0  0  0  0  0  0  0  0  0  0  0  0
   91.0253   50.1098  267.3668 H   0  0  0  0  0  0  0  0  0  0  0  0
   97.3733   48.2821  268.2082 H   0  0  0  0  0  0  0  0  0  0  0  0
   96.8769   46.1468  267.1294 H   0  0  0  0  0  0  0  0  0  0  0  0
   94.8406   51.7329  267.2229 H   0  0  0  0  0  0  0  0  0  0  0  0
   95.2014   53.8155  268.5197 H   0  0  0  0  0  0  0  0  0  0  0  0
   91.7600   50.4657  269.9250 H   0  0  0  0  0  0  0  0  0  0  0  0
   91.3838   47.3909  263.8698 H   0  0  0  0  0  0  0  0  0  0  0  0
   88.1763   45.3032  262.1848 H   0  0  0  0  0  0  0  0  0  0  0  0
   86.8539   45.5415  264.2451 H   0  0  0  0  0  0  0  0  0  0  0  0
   87.7485   45.7855  269.0276 H   0  0  0  0  0  0  0  0  0  0  0  0
   88.2707   44.6728  267.7179 H   0  0  0  0  0  0  0  0  0  0  0  0
   89.3322   46.0332  268.2172 H   0  0  0  0  0  0  0  0  0  0  0  0
   92.5254   55.2016  273.3148 H   0  0  0  0  0  0  0  0  0  0  0  0
   91.0740   54.4766  273.1297 H   0  0  0  0  0  0  0  0  0  0  0  0
  1  4  2  0  0  0  0
  1  6  1  0  0  0  0
  1 11  1  0  0  0  0
  2  3  1  0  0  0  0
  2  5  1  0  0  0  0
  3  4  1  0  0  0  0
  3 15  2  3  0  0  0
  5  6  2  0  0  0  0
  5 10  1  0  0  0  0
  6  7  1  0  0  0  0
  7  8  2  0  0  0  0
  8  9  1  0  0  0  0
  9 10  2  0  0  0  0
 11 12  2  0  0  0  0
 11 14  1  0  0  0  0
 12 13  1  0  0  0  0
 13 27  2  0  0  0  0
 14 26  2  0  0  0  0
 15 16  1  0  0  0  0
 16 17  2  0  0  0  0
 16 21  1  0  0  0  0
 17 18  1  0  0  0  0
 18 19  2  0  0  0  0
 19 20  1  0  0  0  0
 20 21  2  0  0  0  0
 21 22  1  0  0  0  0
 22 23  2  0  0  0  0
 22 24  2  0  0  0  0
 22 25  1  0  0  0  0
 26 27  1  0  0  0  0
 26 30  1  0  0  0  0
 27 28  1  0  0  0  0
 28 29  1  0  0  0  0
 29 30  2  0  0  0  0
 29 31  1  0  0  0  0
  2 32  1  0  0  0  0
  2 33  1  0  0  0  0
  4 34  1  0  0  0  0
  8 35  1  0  0  0  0
  9 36  1  0  0  0  0
 12 37  1  0  0  0  0
 13 38  1  0  0  0  0
 14 39  1  0  0  0  0
 17 40  1  0  0  0  0
 19 41  1  0  0  0  0
 20 42  1  0  0  0  0
 25 43  1  0  0  0  0
 25 44  1  0  0  0  0
 25 45  1  0  0  0  0
 31 46  1  0  0  0  0
 31 47  1  0  0  0  0
M  END
> <ID>
67

> <IC50[uM]>
0.031

$$$$
67
  -OEChem-05192314313D
 Structure written by MMmdl.
 47 51  0     0  0  0  0  0  0999 V2000
   93.1004   49.7216  267.7155 C   0  0  0  0  0  0  0  0  0  0  0  0
   92.5890   47.2745  266.3896 C   0  0  0  0  0  0  0  0  0  0  0  0
   91.5683   48.2049  266.5759 C   0  0  0  0  0  0  0  0  0  0  0  0
   91.8300   49.4026  267.2297 C   0  0  0  0  0  0  0  0  0  0  0  0
   93.8878   47.5400  266.8820 C   0  0  0  0  0  0  0  0  0  0  0  0
   94.1599   48.7802  267.5411 C   0  0  0  0  0  0  0  0  0  0  0  0
   95.4145   49.0346  268.0280 N   0  0  0  0  0  0  0  0  0  0  0  0
   96.3713   48.0905  267.8536 C   0  0  0  0  0  0  0  0  0  0  0  0
   96.0910   46.8809  267.2282 C   0  0  0  0  0  0  0  0  0  0  0  0
   94.8599   46.5971  266.7393 N   0  0  0  0  0  0  0  0  0  0  0  0
   93.2846   50.9778  268.4857 C   0  0  0  0  0  0  0  0  0  0  0  0
   94.2454   51.9199  268.1045 C   0  0  0  0  0  0  0  0  0  0  0  0
   94.4590   53.0941  268.8278 C   0  0  0  0  0  0  0  0  0  0  0  0
   92.5073   51.1876  269.6303 C   0  0  0  0  0  0  0  0  0  0  0  0
   90.2493   47.9429  266.1975 N   0  0  0  0  0  0  0  0  0  0  0  0
   89.6938   47.1846  265.1577 C   0  0  0  0  0  0  0  0  0  0  0  0
   90.3836   46.9926  263.9558 C   0  0  0  0  0  0  0  0  0  0  0  0
   89.8604   46.3316  262.8928 N   0  0  0  0  0  0  0  0  0  0  0  0
   88.6069   45.8318  263.0224 C   0  0  0  0  0  0  0  0  0  0  0  0
   87.8451   45.9660  264.1837 C   0  0  0  0  0  0  0  0  0  0  0  0
   88.3928   46.6627  265.2677 C   0  0  0  0  0  0  0  0  0  0  0  0
   87.4640   46.8258  266.7979 S   0  0  0  0  0  0  0  0  0  0  0  0
   87.6173   48.2190  267.2276 O   0  0  0  0  0  0  0  0  0  0  0  0
   86.1278   46.2817  266.5368 O   0  0  0  0  0  0  0  0  0  0  0  0
   88.2895   45.7139  268.0726 C   0  0  0  0  0  0  0  0  0  0  0  0
   92.7122   52.3451  270.3867 C   0  0  0  0  0  0  0  0  0  0  0  0
   93.6742   53.3006  269.9675 C   0  0  0  0  0  0  0  0  0  0  0  0
   93.6619   54.6467  271.0869 S   0  0  0  0  0  0  0  0  0  0  0  0
   92.4847   53.7751  272.0143 C   0  0  0  0  0  0  0  0  0  0  0  0
   92.0618   52.6441  271.5401 N   0  0  0  0  0  0  0  0  0  0  0  0
   92.0618   54.3270  273.1729 N   0  0  0  0  0  0  0  0  0  0  0  0
   92.2556   46.3388  266.8622 H   0  0  0  0  0  0  0  0  0  0  0  0
   92.6859   47.1229  265.3044 H   0  0  0  0  0  0  0  0  0  0  0  0
   91.0253   50.1098  267.3668 H   0  0  0  0  0  0  0  0  0  0  0  0
   97.3733   48.2821  268.2082 H   0  0  0  0  0  0  0  0  0  0  0  0
   96.8769   46.1468  267.1294 H   0  0  0  0  0  0  0  0  0  0  0  0
   94.8406   51.7329  267.2229 H   0  0  0  0  0  0  0  0  0  0  0  0
   95.2014   53.8155  268.5197 H   0  0  0  0  0  0  0  0  0  0  0  0
   91.7600   50.4657  269.9250 H   0  0  0  0  0  0  0  0  0  0  0  0
   91.3838   47.3909  263.8698 H   0  0  0  0  0  0  0  0  0  0  0  0
   88.1763   45.3032  262.1848 H   0  0  0  0  0  0  0  0  0  0  0  0
   86.8539   45.5415  264.2451 H   0  0  0  0  0  0  0  0  0  0  0  0
   87.7485   45.7855  269.0276 H   0  0  0  0  0  0  0  0  0  0  0  0
   88.2707   44.6728  267.7179 H   0  0  0  0  0  0  0  0  0  0  0  0
   89.3322   46.0332  268.2172 H   0  0  0  0  0  0  0  0  0  0  0  0
   91.3576   52.0742  271.9635 H   0  0  0  0  0  0  0  0  0  0  0  0
   92.5033   55.2062  273.3521 H   0  0  0  0  0  0  0  0  0  0  0  0
  1  4  2  0  0  0  0
  1  6  1  0  0  0  0
  1 11  1  0  0  0  0
  2  3  1  0  0  0  0
  2  5  1  0  0  0  0
  3  4  1  0  0  0  0
  3 15  2  3  0  0  0
  5  6  2  0  0  0  0
  5 10  1  0  0  0  0
  6  7  1  0  0  0  0
  7  8  2  0  0  0  0
  8  9  1  0  0  0  0
  9 10  2  0  0  0  0
 11 12  2  0  0  0  0
 11 14  1  0  0  0  0
 12 13  1  0  0  0  0
 13 27  2  0  0  0  0
 14 26  2  0  0  0  0
 15 16  1  0  0  0  0
 16 17  2  0  0  0  0
 16 21  1  0  0  0  0
 17 18  1  0  0  0  0
 18 19  2  0  0  0  0
 19 20  1  0  0  0  0
 20 21  2  0  0  0  0
 21 22  1  0  0  0  0
 22 23  2  0  0  0  0
 22 24  2  0  0  0  0
 22 25  1  0  0  0  0
 26 27  1  0  0  0  0
 26 30  1  0  0  0  0
 27 28  1  0  0  0  0
 28 29  1  0  0  0  0
 29 30  1  0  0  0  0
 29 31  2  0  0  0  0
  2 32  1  0  0  0  0
  2 33  1  0  0  0  0
  4 34  1  0  0  0  0
  8 35  1  0  0  0  0
  9 36  1  0  0  0  0
 12 37  1  0  0  0  0
 13 38  1  0  0  0  0
 14 39  1  0  0  0  0
 17 40  1  0  0  0  0
 19 41  1  0  0  0  0
 20 42  1  0  0  0  0
 25 43  1  0  0  0  0
 25 44  1  0  0  0  0
 25 45  1  0  0  0  0
 30 46  1  0  0  0  0
 31 47  1  0  0  0  0
M  END
> <ID>
67

> <IC50[uM]>
0.031

$$$$
67
  -OEChem-05192314313D
 Structure written by MMmdl.
 47 51  0     0  0  0  0  0  0999 V2000
   93.1004   49.7216  267.7155 C   0  0  0  0  0  0  0  0  0  0  0  0
   92.5890   47.2745  266.3896 C   0  0  0  0  0  0  0  0  0  0  0  0
   91.5683   48.2049  266.5759 C   0  0  0  0  0  0  0  0  0  0  0  0
   91.8300   49.4026  267.2297 C   0  0  0  0  0  0  0  0  0  0  0  0
   93.8878   47.5400  266.8820 C   0  0  0  0  0  0  0  0  0  0  0  0
   94.1599   48.7802  267.5411 C   0  0  0  0  0  0  0  0  0  0  0  0
   95.4145   49.0346  268.0280 N   0  0  0  0  0  0  0  0  0  0  0  0
   96.3713   48.0905  267.8536 C   0  0  0  0  0  0  0  0  0  0  0  0
   96.0910   46.8809  267.2282 C   0  0  0  0  0  0  0  0  0  0  0  0
   94.8599   46.5971  266.7393 N   0  0  0  0  0  0  0  0  0  0  0  0
   93.2846   50.9778  268.4857 C   0  0  0  0  0  0  0  0  0  0  0  0
   94.2454   51.9199  268.1045 C   0  0  0  0  0  0  0  0  0  0  0  0
   94.4590   53.0941  268.8278 C   0  0  0  0  0  0  0  0  0  0  0  0
   92.5073   51.1876  269.6303 C   0  0  0  0  0  0  0  0  0  0  0  0
   90.2493   47.9429  266.1975 N   0  0  0  0  0  0  0  0  0  0  0  0
   89.6938   47.1846  265.1577 C   0  0  0  0  0  0  0  0  0  0  0  0
   90.3836   46.9926  263.9558 C   0  0  0  0  0  0  0  0  0  0  0  0
   89.8604   46.3316  262.8928 N   0  0  0  0  0  0  0  0  0  0  0  0
   88.6069   45.8318  263.0224 C   0  0  0  0  0  0  0  0  0  0  0  0
   87.8451   45.9660  264.1837 C   0  0  0  0  0  0  0  0  0  0  0  0
   88.3928   46.6627  265.2677 C   0  0  0  0  0  0  0  0  0  0  0  0
   87.4640   46.8258  266.7979 S   0  0  0  0  0  0  0  0  0  0  0  0
   87.6173   48.2190  267.2276 O   0  0  0  0  0  0  0  0  0  0  0  0
   86.1278   46.2817  266.5368 O   0  0  0  0  0  0  0  0  0  0  0  0
   88.2895   45.7139  268.0726 C   0  0  0  0  0  0  0  0  0  0  0  0
   92.7122   52.3451  270.3867 C   0  0  0  0  0  0  0  0  0  0  0  0
   93.6742   53.3006  269.9675 C   0  0  0  0  0  0  0  0  0  0  0  0
   93.6619   54.6467  271.0869 S   0  0  0  0  0  0  0  0  0  0  0  0
   92.4847   53.7751  272.0143 C   0  0  0  0  0  0  0  0  0  0  0  0
   92.0618   52.6441  271.5401 N   0  0  0  0  0  0  0  0  0  0  0  0
   92.0618   54.3270  273.1729 N   0  0  0  0  0  0  0  0  0  0  0  0
   92.3879   46.3500  265.8687 H   0  0  0  0  0  0  0  0  0  0  0  0
   91.1529   49.4341  268.0960 H   0  0  0  0  0  0  0  0  0  0  0  0
   91.5608   50.2028  266.5246 H   0  0  0  0  0  0  0  0  0  0  0  0
   97.3733   48.2821  268.2082 H   0  0  0  0  0  0  0  0  0  0  0  0
   96.8769   46.1468  267.1294 H   0  0  0  0  0  0  0  0  0  0  0  0
   94.8406   51.7329  267.2229 H   0  0  0  0  0  0  0  0  0  0  0  0
   95.2014   53.8155  268.5197 H   0  0  0  0  0  0  0  0  0  0  0  0
   91.7600   50.4657  269.9250 H   0  0  0  0  0  0  0  0  0  0  0  0
   91.3838   47.3909  263.8698 H   0  0  0  0  0  0  0  0  0  0  0  0
   88.1763   45.3032  262.1848 H   0  0  0  0  0  0  0  0  0  0  0  0
   86.8539   45.5415  264.2451 H   0  0  0  0  0  0  0  0  0  0  0  0
   87.7485   45.7855  269.0276 H   0  0  0  0  0  0  0  0  0  0  0  0
   88.2707   44.6728  267.7179 H   0  0  0  0  0  0  0  0  0  0  0  0
   89.3322   46.0332  268.2172 H   0  0  0  0  0  0  0  0  0  0  0  0
   92.5254   55.2016  273.3148 H   0  0  0  0  0  0  0  0  0  0  0  0
   91.0740   54.4766  273.1297 H   0  0  0  0  0  0  0  0  0  0  0  0
  1  4  1  0  0  0  0
  1  6  2  0  0  0  0
  1 11  1  0  0  0  0
  2  3  1  0  0  0  0
  2  5  2  0  0  0  0
  3  4  1  0  0  0  0
  3 15  2  3  0  0  0
  5  6  1  0  0  0  0
  5 10  1  0  0  0  0
  6  7  1  0  0  0  0
  7  8  2  0  0  0  0
  8  9  1  0  0  0  0
  9 10  2  0  0  0  0
 11 12  2  0  0  0  0
 11 14  1  0  0  0  0
 12 13  1  0  0  0  0
 13 27  2  0  0  0  0
 14 26  2  0  0  0  0
 15 16  1  0  0  0  0
 16 17  2  0  0  0  0
 16 21  1  0  0  0  0
 17 18  1  0  0  0  0
 18 19  2  0  0  0  0
 19 20  1  0  0  0  0
 20 21  2  0  0  0  0
 21 22  1  0  0  0  0
 22 23  2  0  0  0  0
 22 24  2  0  0  0  0
 22 25  1  0  0  0  0
 26 27  1  0  0  0  0
 26 30  1  0  0  0  0
 27 28  1  0  0  0  0
 28 29  1  0  0  0  0
 29 30  2  0  0  0  0
 29 31  1  0  0  0  0
  2 32  1  0  0  0  0
  4 33  1  0  0  0  0
  4 34  1  0  0  0  0
  8 35  1  0  0  0  0
  9 36  1  0  0  0  0
 12 37  1  0  0  0  0
 13 38  1  0  0  0  0
 14 39  1  0  0  0  0
 17 40  1  0  0  0  0
 19 41  1  0  0  0  0
 20 42  1  0  0  0  0
 25 43  1  0  0  0  0
 25 44  1  0  0  0  0
 25 45  1  0  0  0  0
 31 46  1  0  0  0  0
 31 47  1  0  0  0  0
M  END
> <ID>
67

> <IC50[uM]>
0.031

$$$$
67
  -OEChem-05192314313D
 Structure written by MMmdl.
 47 51  0     0  0  0  0  0  0999 V2000
   93.1004   49.7216  267.7155 C   0  0  0  0  0  0  0  0  0  0  0  0
   92.5890   47.2745  266.3896 C   0  0  0  0  0  0  0  0  0  0  0  0
   91.5683   48.2049  266.5759 C   0  0  0  0  0  0  0  0  0  0  0  0
   91.8300   49.4026  267.2297 C   0  0  0  0  0  0  0  0  0  0  0  0
   93.8878   47.5400  266.8820 C   0  0  0  0  0  0  0  0  0  0  0  0
   94.1599   48.7802  267.5411 C   0  0  0  0  0  0  0  0  0  0  0  0
   95.4145   49.0346  268.0280 N   0  0  0  0  0  0  0  0  0  0  0  0
   96.3713   48.0905  267.8536 C   0  0  0  0  0  0  0  0  0  0  0  0
   96.0910   46.8809  267.2282 C   0  0  0  0  0  0  0  0  0  0  0  0
   94.8599   46.5971  266.7393 N   0  0  0  0  0  0  0  0  0  0  0  0
   93.2846   50.9778  268.4857 C   0  0  0  0  0  0  0  0  0  0  0  0
   94.2454   51.9199  268.1045 C   0  0  0  0  0  0  0  0  0  0  0  0
   94.4590   53.0941  268.8278 C   0  0  0  0  0  0  0  0  0  0  0  0
   92.5073   51.1876  269.6303 C   0  0  0  0  0  0  0  0  0  0  0  0
   90.2493   47.9429  266.1975 N   0  0  0  0  0  0  0  0  0  0  0  0
   89.6938   47.1846  265.1577 C   0  0  0  0  0  0  0  0  0  0  0  0
   90.3836   46.9926  263.9558 C   0  0  0  0  0  0  0  0  0  0  0  0
   89.8604   46.3316  262.8928 N   0  0  0  0  0  0  0  0  0  0  0  0
   88.6069   45.8318  263.0224 C   0  0  0  0  0  0  0  0  0  0  0  0
   87.8451   45.9660  264.1837 C   0  0  0  0  0  0  0  0  0  0  0  0
   88.3928   46.6627  265.2677 C   0  0  0  0  0  0  0  0  0  0  0  0
   87.4640   46.8258  266.7979 S   0  0  0  0  0  0  0  0  0  0  0  0
   87.6173   48.2190  267.2276 O   0  0  0  0  0  0  0  0  0  0  0  0
   86.1278   46.2817  266.5368 O   0  0  0  0  0  0  0  0  0  0  0  0
   88.2895   45.7139  268.0726 C   0  0  0  0  0  0  0  0  0  0  0  0
   92.7122   52.3451  270.3867 C   0  0  0  0  0  0  0  0  0  0  0  0
   93.6742   53.3006  269.9675 C   0  0  0  0  0  0  0  0  0  0  0  0
   93.6619   54.6467  271.0869 S   0  0  0  0  0  0  0  0  0  0  0  0
   92.4847   53.7751  272.0143 C   0  0  0  0  0  0  0  0  0  0  0  0
   92.0618   52.6441  271.5401 N   0  0  0  0  0  0  0  0  0  0  0  0
   92.0618   54.3270  273.1729 N   0  0  0  0  0  0  0  0  0  0  0  0
   92.3879   46.3500  265.8687 H   0  0  0  0  0  0  0  0  0  0  0  0
   91.1529   49.4341  268.0960 H   0  0  0  0  0  0  0  0  0  0  0  0
   91.5608   50.2028  266.5246 H   0  0  0  0  0  0  0  0  0  0  0  0
   97.3733   48.2821  268.2082 H   0  0  0  0  0  0  0  0  0  0  0  0
   96.8769   46.1468  267.1294 H   0  0  0  0  0  0  0  0  0  0  0  0
   94.8406   51.7329  267.2229 H   0  0  0  0  0  0  0  0  0  0  0  0
   95.2014   53.8155  268.5197 H   0  0  0  0  0  0  0  0  0  0  0  0
   91.7600   50.4657  269.9250 H   0  0  0  0  0  0  0  0  0  0  0  0
   91.3838   47.3909  263.8698 H   0  0  0  0  0  0  0  0  0  0  0  0
   88.1763   45.3032  262.1848 H   0  0  0  0  0  0  0  0  0  0  0  0
   86.8539   45.5415  264.2451 H   0  0  0  0  0  0  0  0  0  0  0  0
   87.7485   45.7855  269.0276 H   0  0  0  0  0  0  0  0  0  0  0  0
   88.2707   44.6728  267.7179 H   0  0  0  0  0  0  0  0  0  0  0  0
   89.3322   46.0332  268.2172 H   0  0  0  0  0  0  0  0  0  0  0  0
   91.3576   52.0742  271.9635 H   0  0  0  0  0  0  0  0  0  0  0  0
   92.5033   55.2062  273.3521 H   0  0  0  0  0  0  0  0  0  0  0  0
  1  4  1  0  0  0  0
  1  6  2  0  0  0  0
  1 11  1  0  0  0  0
  2  3  1  0  0  0  0
  2  5  2  0  0  0  0
  3  4  1  0  0  0  0
  3 15  2  3  0  0  0
  5  6  1  0  0  0  0
  5 10  1  0  0  0  0
  6  7  1  0  0  0  0
  7  8  2  0  0  0  0
  8  9  1  0  0  0  0
  9 10  2  0  0  0  0
 11 12  2  0  0  0  0
 11 14  1  0  0  0  0
 12 13  1  0  0  0  0
 13 27  2  0  0  0  0
 14 26  2  0  0  0  0
 15 16  1  0  0  0  0
 16 17  2  0  0  0  0
 16 21  1  0  0  0  0
 17 18  1  0  0  0  0
 18 19  2  0  0  0  0
 19 20  1  0  0  0  0
 20 21  2  0  0  0  0
 21 22  1  0  0  0  0
 22 23  2  0  0  0  0
 22 24  2  0  0  0  0
 22 25  1  0  0  0  0
 26 27  1  0  0  0  0
 26 30  1  0  0  0  0
 27 28  1  0  0  0  0
 28 29  1  0  0  0  0
 29 30  1  0  0  0  0
 29 31  2  0  0  0  0
  2 32  1  0  0  0  0
  4 33  1  0  0  0  0
  4 34  1  0  0  0  0
  8 35  1  0  0  0  0
  9 36  1  0  0  0  0
 12 37  1  0  0  0  0
 13 38  1  0  0  0  0
 14 39  1  0  0  0  0
 17 40  1  0  0  0  0
 19 41  1  0  0  0  0
 20 42  1  0  0  0  0
 25 43  1  0  0  0  0
 25 44  1  0  0  0  0
 25 45  1  0  0  0  0
 30 46  1  0  0  0  0
 31 47  1  0  0  0  0
M  END
> <ID>
67

> <IC50[uM]>
0.031

$$$$
67
  -OEChem-05192314313D
 Structure written by MMmdl.
 47 51  0     1  0  0  0  0  0999 V2000
   93.1004   49.7216  267.7155 C   0  0  0  0  0  0  0  0  0  0  0  0
   92.5890   47.2745  266.3896 C   0  0  0  0  0  0  0  0  0  0  0  0
   91.5683   48.2049  266.5759 C   0  0  0  0  0  0  0  0  0  0  0  0
   91.8300   49.4026  267.2297 C   0  0  0  0  0  0  0  0  0  0  0  0
   93.8878   47.5400  266.8820 C   0  0  0  0  0  0  0  0  0  0  0  0
   94.1599   48.7802  267.5411 C   0  0  0  0  0  0  0  0  0  0  0  0
   95.4145   49.0346  268.0280 N   0  0  0  0  0  0  0  0  0  0  0  0
   96.3713   48.0905  267.8536 C   0  0  0  0  0  0  0  0  0  0  0  0
   96.0910   46.8809  267.2282 C   0  0  0  0  0  0  0  0  0  0  0  0
   94.8599   46.5971  266.7393 N   0  0  0  0  0  0  0  0  0  0  0  0
   93.2846   50.9778  268.4857 C   0  0  0  0  0  0  0  0  0  0  0  0
   94.2454   51.9199  268.1045 C   0  0  0  0  0  0  0  0  0  0  0  0
   94.4590   53.0941  268.8278 C   0  0  0  0  0  0  0  0  0  0  0  0
   92.5073   51.1876  269.6303 C   0  0  0  0  0  0  0  0  0  0  0  0
   90.2493   47.9429  266.1975 N   0  0  0  0  0  0  0  0  0  0  0  0
   89.6938   47.1846  265.1577 C   0  0  0  0  0  0  0  0  0  0  0  0
   90.3836   46.9926  263.9558 C   0  0  0  0  0  0  0  0  0  0  0  0
   89.8604   46.3316  262.8928 N   0  0  0  0  0  0  0  0  0  0  0  0
   88.6069   45.8318  263.0224 C   0  0  0  0  0  0  0  0  0  0  0  0
   87.8451   45.9660  264.1837 C   0  0  0  0  0  0  0  0  0  0  0  0
   88.3928   46.6627  265.2677 C   0  0  3  0  0  0  0  0  0  0  0  0
   87.4640   46.8258  266.7979 S   0  0  0  0  0  0  0  0  0  0  0  0
   87.6173   48.2190  267.2276 O   0  0  0  0  0  0  0  0  0  0  0  0
   86.1278   46.2817  266.5368 O   0  0  0  0  0  0  0  0  0  0  0  0
   88.2895   45.7139  268.0726 C   0  0  0  0  0  0  0  0  0  0  0  0
   92.7122   52.3451  270.3867 C   0  0  0  0  0  0  0  0  0  0  0  0
   93.6742   53.3006  269.9675 C   0  0  0  0  0  0  0  0  0  0  0  0
   93.6619   54.6467  271.0869 S   0  0  0  0  0  0  0  0  0  0  0  0
   92.4847   53.7751  272.0143 C   0  0  0  0  0  0  0  0  0  0  0  0
   92.0618   52.6441  271.5401 N   0  0  0  0  0  0  0  0  0  0  0  0
   92.0618   54.3270  273.1729 N   0  0  0  0  0  0  0  0  0  0  0  0
   92.3879   46.3500  265.8687 H   0  0  0  0  0  0  0  0  0  0  0  0
   91.0253   50.1098  267.3668 H   0  0  0  0  0  0  0  0  0  0  0  0
   97.3733   48.2821  268.2082 H   0  0  0  0  0  0  0  0  0  0  0  0
   96.8769   46.1468  267.1294 H   0  0  0  0  0  0  0  0  0  0  0  0
   94.8406   51.7329  267.2229 H   0  0  0  0  0  0  0  0  0  0  0  0
   95.2014   53.8155  268.5197 H   0  0  0  0  0  0  0  0  0  0  0  0
   91.7600   50.4657  269.9250 H   0  0  0  0  0  0  0  0  0  0  0  0
   91.3838   47.3909  263.8698 H   0  0  0  0  0  0  0  0  0  0  0  0
   88.1763   45.3032  262.1848 H   0  0  0  0  0  0  0  0  0  0  0  0
   86.8539   45.5415  264.2451 H   0  0  0  0  0  0  0  0  0  0  0  0
   87.9671   47.6062  264.8954 H   0  0  0  0  0  0  0  0  0  0  0  0
   87.7485   45.7855  269.0276 H   0  0  0  0  0  0  0  0  0  0  0  0
   88.2707   44.6728  267.7179 H   0  0  0  0  0  0  0  0  0  0  0  0
   89.3322   46.0332  268.2172 H   0  0  0  0  0  0  0  0  0  0  0  0
   92.5254   55.2016  273.3148 H   0  0  0  0  0  0  0  0  0  0  0  0
   91.0740   54.4766  273.1297 H   0  0  0  0  0  0  0  0  0  0  0  0
  1  4  2  0  0  0  0
  1  6  1  0  0  0  0
  1 11  1  0  0  0  0
  2  3  2  0  0  0  0
  2  5  1  0  0  0  0
  3  4  1  0  0  0  0
  3 15  1  0  0  0  0
  5  6  2  0  0  0  0
  5 10  1  0  0  0  0
  6  7  1  0  0  0  0
  7  8  2  0  0  0  0
  8  9  1  0  0  0  0
  9 10  2  0  0  0  0
 11 12  2  0  0  0  0
 11 14  1  0  0  0  0
 12 13  1  0  0  0  0
 13 27  2  0  0  0  0
 14 26  2  0  0  0  0
 15 16  2  0  0  0  0
 16 17  1  0  0  0  0
 16 21  1  0  0  0  0
 17 18  2  0  0  0  0
 18 19  1  0  0  0  0
 19 20  2  0  0  0  0
 20 21  1  0  0  0  0
 21 22  1  0  0  0  0
 22 23  2  0  0  0  0
 22 24  2  0  0  0  0
 22 25  1  0  0  0  0
 26 27  1  0  0  0  0
 26 30  1  0  0  0  0
 27 28  1  0  0  0  0
 28 29  1  0  0  0  0
 29 30  2  0  0  0  0
 29 31  1  0  0  0  0
  2 32  1  0  0  0  0
  4 33  1  0  0  0  0
  8 34  1  0  0  0  0
  9 35  1  0  0  0  0
 12 36  1  0  0  0  0
 13 37  1  0  0  0  0
 14 38  1  0  0  0  0
 17 39  1  0  0  0  0
 19 40  1  0  0  0  0
 20 41  1  0  0  0  0
 21 42  1  0  0  0  0
 25 43  1  0  0  0  0
 25 44  1  0  0  0  0
 25 45  1  0  0  0  0
 31 46  1  0  0  0  0
 31 47  1  0  0  0  0
M  END
> <ID>
67

> <IC50[uM]>
0.031

$$$$
67
  -OEChem-05192314313D
 Structure written by MMmdl.
 47 51  0     0  0  0  0  0  0999 V2000
   93.1004   49.7216  267.7155 C   0  0  0  0  0  0  0  0  0  0  0  0
   92.5890   47.2745  266.3896 C   0  0  0  0  0  0  0  0  0  0  0  0
   91.5683   48.2049  266.5759 C   0  0  0  0  0  0  0  0  0  0  0  0
   91.8300   49.4026  267.2297 C   0  0  0  0  0  0  0  0  0  0  0  0
   93.8878   47.5400  266.8820 C   0  0  0  0  0  0  0  0  0  0  0  0
   94.1599   48.7802  267.5411 C   0  0  0  0  0  0  0  0  0  0  0  0
   95.4145   49.0346  268.0280 N   0  0  0  0  0  0  0  0  0  0  0  0
   96.3713   48.0905  267.8536 C   0  0  0  0  0  0  0  0  0  0  0  0
   96.0910   46.8809  267.2282 C   0  0  0  0  0  0  0  0  0  0  0  0
   94.8599   46.5971  266.7393 N   0  0  0  0  0  0  0  0  0  0  0  0
   93.2846   50.9778  268.4857 C   0  0  0  0  0  0  0  0  0  0  0  0
   94.2454   51.9199  268.1045 C   0  0  0  0  0  0  0  0  0  0  0  0
   94.4590   53.0941  268.8278 C   0  0  0  0  0  0  0  0  0  0  0  0
   92.5073   51.1876  269.6303 C   0  0  0  0  0  0  0  0  0  0  0  0
   90.2493   47.9429  266.1975 N   0  0  0  0  0  0  0  0  0  0  0  0
   89.6938   47.1846  265.1577 C   0  0  0  0  0  0  0  0  0  0  0  0
   90.3836   46.9926  263.9558 C   0  0  0  0  0  0  0  0  0  0  0  0
   89.8604   46.3316  262.8928 N   0  0  0  0  0  0  0  0  0  0  0  0
   88.6069   45.8318  263.0224 C   0  0  0  0  0  0  0  0  0  0  0  0
   87.8451   45.9660  264.1837 C   0  0  0  0  0  0  0  0  0  0  0  0
   88.3928   46.6627  265.2677 C   0  0  0  0  0  0  0  0  0  0  0  0
   87.4640   46.8258  266.7979 S   0  0  0  0  0  0  0  0  0  0  0  0
   87.6173   48.2190  267.2276 O   0  0  0  0  0  0  0  0  0  0  0  0
   86.1278   46.2817  266.5368 O   0  0  0  0  0  0  0  0  0  0  0  0
   88.2895   45.7139  268.0726 C   0  0  0  0  0  0  0  0  0  0  0  0
   92.7122   52.3451  270.3867 C   0  0  0  0  0  0  0  0  0  0  0  0
   93.6742   53.3006  269.9675 C   0  0  0  0  0  0  0  0  0  0  0  0
   93.6619   54.6467  271.0869 S   0  0  0  0  0  0  0  0  0  0  0  0
   92.4847   53.7751  272.0143 C   0  0  0  0  0  0  0  0  0  0  0  0
   92.0618   52.6441  271.5401 N   0  0  0  0  0  0  0  0  0  0  0  0
   92.0618   54.3270  273.1729 N   0  0  0  0  0  0  0  0  0  0  0  0
   92.3879   46.3500  265.8687 H   0  0  0  0  0  0  0  0  0  0  0  0
   91.0253   50.1098  267.3668 H   0  0  0  0  0  0  0  0  0  0  0  0
   97.3733   48.2821  268.2082 H   0  0  0  0  0  0  0  0  0  0  0  0
   96.8769   46.1468  267.1294 H   0  0  0  0  0  0  0  0  0  0  0  0
   94.8406   51.7329  267.2229 H   0  0  0  0  0  0  0  0  0  0  0  0
   95.2014   53.8155  268.5197 H   0  0  0  0  0  0  0  0  0  0  0  0
   91.7600   50.4657  269.9250 H   0  0  0  0  0  0  0  0  0  0  0  0
   91.3838   47.3909  263.8698 H   0  0  0  0  0  0  0  0  0  0  0  0
   88.0141   46.2918  262.2180 H   0  0  0  0  0  0  0  0  0  0  0  0
   88.6933   44.7502  262.8417 H   0  0  0  0  0  0  0  0  0  0  0  0
   86.8539   45.5415  264.2451 H   0  0  0  0  0  0  0  0  0  0  0  0
   87.7485   45.7855  269.0276 H   0  0  0  0  0  0  0  0  0  0  0  0
   88.2707   44.6728  267.7179 H   0  0  0  0  0  0  0  0  0  0  0  0
   89.3322   46.0332  268.2172 H   0  0  0  0  0  0  0  0  0  0  0  0
   92.5254   55.2016  273.3148 H   0  0  0  0  0  0  0  0  0  0  0  0
   91.0740   54.4766  273.1297 H   0  0  0  0  0  0  0  0  0  0  0  0
  1  4  2  0  0  0  0
  1  6  1  0  0  0  0
  1 11  1  0  0  0  0
  2  3  2  0  0  0  0
  2  5  1  0  0  0  0
  3  4  1  0  0  0  0
  3 15  1  0  0  0  0
  5  6  2  0  0  0  0
  5 10  1  0  0  0  0
  6  7  1  0  0  0  0
  7  8  2  0  0  0  0
  8  9  1  0  0  0  0
  9 10  2  0  0  0  0
 11 12  2  0  0  0  0
 11 14  1  0  0  0  0
 12 13  1  0  0  0  0
 13 27  2  0  0  0  0
 14 26  2  0  0  0  0
 15 16  2  0  0  0  0
 16 17  1  0  0  0  0
 16 21  1  0  0  0  0
 17 18  2  0  0  0  0
 18 19  1  0  0  0  0
 19 20  1  0  0  0  0
 20 21  2  0  0  0  0
 21 22  1  0  0  0  0
 22 23  2  0  0  0  0
 22 24  2  0  0  0  0
 22 25  1  0  0  0  0
 26 27  1  0  0  0  0
 26 30  1  0  0  0  0
 27 28  1  0  0  0  0
 28 29  1  0  0  0  0
 29 30  2  0  0  0  0
 29 31  1  0  0  0  0
  2 32  1  0  0  0  0
  4 33  1  0  0  0  0
  8 34  1  0  0  0  0
  9 35  1  0  0  0  0
 12 36  1  0  0  0  0
 13 37  1  0  0  0  0
 14 38  1  0  0  0  0
 17 39  1  0  0  0  0
 19 40  1  0  0  0  0
 19 41  1  0  0  0  0
 20 42  1  0  0  0  0
 25 43  1  0  0  0  0
 25 44  1  0  0  0  0
 25 45  1  0  0  0  0
 31 46  1  0  0  0  0
 31 47  1  0  0  0  0
M  END
> <ID>
67

> <IC50[uM]>
0.031

$$$$
67
  -OEChem-05192314313D
 Structure written by MMmdl.
 47 51  0     0  0  0  0  0  0999 V2000
   93.1004   49.7216  267.7155 C   0  0  0  0  0  0  0  0  0  0  0  0
   92.5890   47.2745  266.3896 C   0  0  0  0  0  0  0  0  0  0  0  0
   91.5683   48.2049  266.5759 C   0  0  0  0  0  0  0  0  0  0  0  0
   91.8300   49.4026  267.2297 C   0  0  0  0  0  0  0  0  0  0  0  0
   93.8878   47.5400  266.8820 C   0  0  0  0  0  0  0  0  0  0  0  0
   94.1599   48.7802  267.5411 C   0  0  0  0  0  0  0  0  0  0  0  0
   95.4145   49.0346  268.0280 N   0  0  0  0  0  0  0  0  0  0  0  0
   96.3713   48.0905  267.8536 C   0  0  0  0  0  0  0  0  0  0  0  0
   96.0910   46.8809  267.2282 C   0  0  0  0  0  0  0  0  0  0  0  0
   94.8599   46.5971  266.7393 N   0  0  0  0  0  0  0  0  0  0  0  0
   93.2846   50.9778  268.4857 C   0  0  0  0  0  0  0  0  0  0  0  0
   94.2454   51.9199  268.1045 C   0  0  0  0  0  0  0  0  0  0  0  0
   94.4590   53.0941  268.8278 C   0  0  0  0  0  0  0  0  0  0  0  0
   92.5073   51.1876  269.6303 C   0  0  0  0  0  0  0  0  0  0  0  0
   90.2493   47.9429  266.1975 N   0  0  0  0  0  0  0  0  0  0  0  0
   89.6938   47.1846  265.1577 C   0  0  0  0  0  0  0  0  0  0  0  0
   90.3836   46.9926  263.9558 C   0  0  0  0  0  0  0  0  0  0  0  0
   89.8604   46.3316  262.8928 N   0  0  0  0  0  0  0  0  0  0  0  0
   88.6069   45.8318  263.0224 C   0  0  0  0  0  0  0  0  0  0  0  0
   87.8451   45.9660  264.1837 C   0  0  0  0  0  0  0  0  0  0  0  0
   88.3928   46.6627  265.2677 C   0  0  0  0  0  0  0  0  0  0  0  0
   87.4640   46.8258  266.7979 S   0  0  0  0  0  0  0  0  0  0  0  0
   87.6173   48.2190  267.2276 O   0  0  0  0  0  0  0  0  0  0  0  0
   86.1278   46.2817  266.5368 O   0  0  0  0  0  0  0  0  0  0  0  0
   88.2895   45.7139  268.0726 C   0  0  0  0  0  0  0  0  0  0  0  0
   92.7122   52.3451  270.3867 C   0  0  0  0  0  0  0  0  0  0  0  0
   93.6742   53.3006  269.9675 C   0  0  0  0  0  0  0  0  0  0  0  0
   93.6619   54.6467  271.0869 S   0  0  0  0  0  0  0  0  0  0  0  0
   92.4847   53.7751  272.0143 C   0  0  0  0  0  0  0  0  0  0  0  0
   92.0618   52.6441  271.5401 N   0  0  0  0  0  0  0  0  0  0  0  0
   92.0618   54.3270  273.1729 N   0  0  0  0  0  0  0  0  0  0  0  0
   92.3879   46.3500  265.8687 H   0  0  0  0  0  0  0  0  0  0  0  0
   91.0253   50.1098  267.3668 H   0  0  0  0  0  0  0  0  0  0  0  0
   97.3733   48.2821  268.2082 H   0  0  0  0  0  0  0  0  0  0  0  0
   96.8769   46.1468  267.1294 H   0  0  0  0  0  0  0  0  0  0  0  0
   94.8406   51.7329  267.2229 H   0  0  0  0  0  0  0  0  0  0  0  0
   95.2014   53.8155  268.5197 H   0  0  0  0  0  0  0  0  0  0  0  0
   91.7600   50.4657  269.9250 H   0  0  0  0  0  0  0  0  0  0  0  0
   90.6373   47.9985  263.5900 H   0  0  0  0  0  0  0  0  0  0  0  0
   91.3062   46.4552  264.2204 H   0  0  0  0  0  0  0  0  0  0  0  0
   88.1763   45.3032  262.1848 H   0  0  0  0  0  0  0  0  0  0  0  0
   86.8539   45.5415  264.2451 H   0  0  0  0  0  0  0  0  0  0  0  0
   87.7485   45.7855  269.0276 H   0  0  0  0  0  0  0  0  0  0  0  0
   88.2707   44.6728  267.7179 H   0  0  0  0  0  0  0  0  0  0  0  0
   89.3322   46.0332  268.2172 H   0  0  0  0  0  0  0  0  0  0  0  0
   92.5254   55.2016  273.3148 H   0  0  0  0  0  0  0  0  0  0  0  0
   91.0740   54.4766  273.1297 H   0  0  0  0  0  0  0  0  0  0  0  0
  1  4  2  0  0  0  0
  1  6  1  0  0  0  0
  1 11  1  0  0  0  0
  2  3  2  0  0  0  0
  2  5  1  0  0  0  0
  3  4  1  0  0  0  0
  3 15  1  0  0  0  0
  5  6  2  0  0  0  0
  5 10  1  0  0  0  0
  6  7  1  0  0  0  0
  7  8  2  0  0  0  0
  8  9  1  0  0  0  0
  9 10  2  0  0  0  0
 11 12  2  0  0  0  0
 11 14  1  0  0  0  0
 12 13  1  0  0  0  0
 13 27  2  0  0  0  0
 14 26  2  0  0  0  0
 15 16  2  0  0  0  0
 16 17  1  0  0  0  0
 16 21  1  0  0  0  0
 17 18  1  0  0  0  0
 18 19  2  0  0  0  0
 19 20  1  0  0  0  0
 20 21  2  0  0  0  0
 21 22  1  0  0  0  0
 22 23  2  0  0  0  0
 22 24  2  0  0  0  0
 22 25  1  0  0  0  0
 26 27  1  0  0  0  0
 26 30  1  0  0  0  0
 27 28  1  0  0  0  0
 28 29  1  0  0  0  0
 29 30  2  0  0  0  0
 29 31  1  0  0  0  0
  2 32  1  0  0  0  0
  4 33  1  0  0  0  0
  8 34  1  0  0  0  0
  9 35  1  0  0  0  0
 12 36  1  0  0  0  0
 13 37  1  0  0  0  0
 14 38  1  0  0  0  0
 17 39  1  0  0  0  0
 17 40  1  0  0  0  0
 19 41  1  0  0  0  0
 20 42  1  0  0  0  0
 25 43  1  0  0  0  0
 25 44  1  0  0  0  0
 25 45  1  0  0  0  0
 31 46  1  0  0  0  0
 31 47  1  0  0  0  0
M  END
> <ID>
67

> <IC50[uM]>
0.031

$$$$
67
  -OEChem-05192314313D
 Structure written by MMmdl.
 47 51  0     1  0  0  0  0  0999 V2000
   93.1004   49.7216  267.7155 C   0  0  0  0  0  0  0  0  0  0  0  0
   92.5890   47.2745  266.3896 C   0  0  0  0  0  0  0  0  0  0  0  0
   91.5683   48.2049  266.5759 C   0  0  0  0  0  0  0  0  0  0  0  0
   91.8300   49.4026  267.2297 C   0  0  0  0  0  0  0  0  0  0  0  0
   93.8878   47.5400  266.8820 C   0  0  0  0  0  0  0  0  0  0  0  0
   94.1599   48.7802  267.5411 C   0  0  0  0  0  0  0  0  0  0  0  0
   95.4145   49.0346  268.0280 N   0  0  0  0  0  0  0  0  0  0  0  0
   96.3713   48.0905  267.8536 C   0  0  0  0  0  0  0  0  0  0  0  0
   96.0910   46.8809  267.2282 C   0  0  0  0  0  0  0  0  0  0  0  0
   94.8599   46.5971  266.7393 N   0  0  0  0  0  0  0  0  0  0  0  0
   93.2846   50.9778  268.4857 C   0  0  0  0  0  0  0  0  0  0  0  0
   94.2454   51.9199  268.1045 C   0  0  0  0  0  0  0  0  0  0  0  0
   94.4590   53.0941  268.8278 C   0  0  0  0  0  0  0  0  0  0  0  0
   92.5073   51.1876  269.6303 C   0  0  0  0  0  0  0  0  0  0  0  0
   90.2493   47.9429  266.1975 N   0  0  0  0  0  0  0  0  0  0  0  0
   89.6938   47.1846  265.1577 C   0  0  0  0  0  0  0  0  0  0  0  0
   90.3836   46.9926  263.9558 C   0  0  0  0  0  0  0  0  0  0  0  0
   89.8604   46.3316  262.8928 N   0  0  0  0  0  0  0  0  0  0  0  0
   88.6069   45.8318  263.0224 C   0  0  0  0  0  0  0  0  0  0  0  0
   87.8451   45.9660  264.1837 C   0  0  0  0  0  0  0  0  0  0  0  0
   88.3928   46.6627  265.2677 C   0  0  3  0  0  0  0  0  0  0  0  0
   87.4640   46.8258  266.7979 S   0  0  0  0  0  0  0  0  0  0  0  0
   87.6173   48.2190  267.2276 O   0  0  0  0  0  0  0  0  0  0  0  0
   86.1278   46.2817  266.5368 O   0  0  0  0  0  0  0  0  0  0  0  0
   88.2895   45.7139  268.0726 C   0  0  0  0  0  0  0  0  0  0  0  0
   92.7122   52.3451  270.3867 C   0  0  0  0  0  0  0  0  0  0  0  0
   93.6742   53.3006  269.9675 C   0  0  0  0  0  0  0  0  0  0  0  0
   93.6619   54.6467  271.0869 S   0  0  0  0  0  0  0  0  0  0  0  0
   92.4847   53.7751  272.0143 C   0  0  0  0  0  0  0  0  0  0  0  0
   92.0618   52.6441  271.5401 N   0  0  0  0  0  0  0  0  0  0  0  0
   92.0618   54.3270  273.1729 N   0  0  0  0  0  0  0  0  0  0  0  0
   92.3879   46.3500  265.8687 H   0  0  0  0  0  0  0  0  0  0  0  0
   91.0253   50.1098  267.3668 H   0  0  0  0  0  0  0  0  0  0  0  0
   97.3733   48.2821  268.2082 H   0  0  0  0  0  0  0  0  0  0  0  0
   96.8769   46.1468  267.1294 H   0  0  0  0  0  0  0  0  0  0  0  0
   94.8406   51.7329  267.2229 H   0  0  0  0  0  0  0  0  0  0  0  0
   95.2014   53.8155  268.5197 H   0  0  0  0  0  0  0  0  0  0  0  0
   91.7600   50.4657  269.9250 H   0  0  0  0  0  0  0  0  0  0  0  0
   91.3838   47.3909  263.8698 H   0  0  0  0  0  0  0  0  0  0  0  0
   88.1763   45.3032  262.1848 H   0  0  0  0  0  0  0  0  0  0  0  0
   86.8539   45.5415  264.2451 H   0  0  0  0  0  0  0  0  0  0  0  0
   87.9671   47.6062  264.8954 H   0  0  0  0  0  0  0  0  0  0  0  0
   87.7485   45.7855  269.0276 H   0  0  0  0  0  0  0  0  0  0  0  0
   88.2707   44.6728  267.7179 H   0  0  0  0  0  0  0  0  0  0  0  0
   89.3322   46.0332  268.2172 H   0  0  0  0  0  0  0  0  0  0  0  0
   91.3576   52.0742  271.9635 H   0  0  0  0  0  0  0  0  0  0  0  0
   92.5033   55.2062  273.3521 H   0  0  0  0  0  0  0  0  0  0  0  0
  1  4  2  0  0  0  0
  1  6  1  0  0  0  0
  1 11  1  0  0  0  0
  2  3  2  0  0  0  0
  2  5  1  0  0  0  0
  3  4  1  0  0  0  0
  3 15  1  0  0  0  0
  5  6  2  0  0  0  0
  5 10  1  0  0  0  0
  6  7  1  0  0  0  0
  7  8  2  0  0  0  0
  8  9  1  0  0  0  0
  9 10  2  0  0  0  0
 11 12  2  0  0  0  0
 11 14  1  0  0  0  0
 12 13  1  0  0  0  0
 13 27  2  0  0  0  0
 14 26  2  0  0  0  0
 15 16  2  0  0  0  0
 16 17  1  0  0  0  0
 16 21  1  0  0  0  0
 17 18  2  0  0  0  0
 18 19  1  0  0  0  0
 19 20  2  0  0  0  0
 20 21  1  0  0  0  0
 21 22  1  0  0  0  0
 22 23  2  0  0  0  0
 22 24  2  0  0  0  0
 22 25  1  0  0  0  0
 26 27  1  0  0  0  0
 26 30  1  0  0  0  0
 27 28  1  0  0  0  0
 28 29  1  0  0  0  0
 29 30  1  0  0  0  0
 29 31  2  0  0  0  0
  2 32  1  0  0  0  0
  4 33  1  0  0  0  0
  8 34  1  0  0  0  0
  9 35  1  0  0  0  0
 12 36  1  0  0  0  0
 13 37  1  0  0  0  0
 14 38  1  0  0  0  0
 17 39  1  0  0  0  0
 19 40  1  0  0  0  0
 20 41  1  0  0  0  0
 21 42  1  0  0  0  0
 25 43  1  0  0  0  0
 25 44  1  0  0  0  0
 25 45  1  0  0  0  0
 30 46  1  0  0  0  0
 31 47  1  0  0  0  0
M  END
> <ID>
67

> <IC50[uM]>
0.031

$$$$
67
  -OEChem-05192314313D
 Structure written by MMmdl.
 47 51  0     0  0  0  0  0  0999 V2000
   93.1004   49.7216  267.7155 C   0  0  0  0  0  0  0  0  0  0  0  0
   92.5890   47.2745  266.3896 C   0  0  0  0  0  0  0  0  0  0  0  0
   91.5683   48.2049  266.5759 C   0  0  0  0  0  0  0  0  0  0  0  0
   91.8300   49.4026  267.2297 C   0  0  0  0  0  0  0  0  0  0  0  0
   93.8878   47.5400  266.8820 C   0  0  0  0  0  0  0  0  0  0  0  0
   94.1599   48.7802  267.5411 C   0  0  0  0  0  0  0  0  0  0  0  0
   95.4145   49.0346  268.0280 N   0  0  0  0  0  0  0  0  0  0  0  0
   96.3713   48.0905  267.8536 C   0  0  0  0  0  0  0  0  0  0  0  0
   96.0910   46.8809  267.2282 C   0  0  0  0  0  0  0  0  0  0  0  0
   94.8599   46.5971  266.7393 N   0  0  0  0  0  0  0  0  0  0  0  0
   93.2846   50.9778  268.4857 C   0  0  0  0  0  0  0  0  0  0  0  0
   94.2454   51.9199  268.1045 C   0  0  0  0  0  0  0  0  0  0  0  0
   94.4590   53.0941  268.8278 C   0  0  0  0  0  0  0  0  0  0  0  0
   92.5073   51.1876  269.6303 C   0  0  0  0  0  0  0  0  0  0  0  0
   90.2493   47.9429  266.1975 N   0  0  0  0  0  0  0  0  0  0  0  0
   89.6938   47.1846  265.1577 C   0  0  0  0  0  0  0  0  0  0  0  0
   90.3836   46.9926  263.9558 C   0  0  0  0  0  0  0  0  0  0  0  0
   89.8604   46.3316  262.8928 N   0  0  0  0  0  0  0  0  0  0  0  0
   88.6069   45.8318  263.0224 C   0  0  0  0  0  0  0  0  0  0  0  0
   87.8451   45.9660  264.1837 C   0  0  0  0  0  0  0  0  0  0  0  0
   88.3928   46.6627  265.2677 C   0  0  0  0  0  0  0  0  0  0  0  0
   87.4640   46.8258  266.7979 S   0  0  0  0  0  0  0  0  0  0  0  0
   87.6173   48.2190  267.2276 O   0  0  0  0  0  0  0  0  0  0  0  0
   86.1278   46.2817  266.5368 O   0  0  0  0  0  0  0  0  0  0  0  0
   88.2895   45.7139  268.0726 C   0  0  0  0  0  0  0  0  0  0  0  0
   92.7122   52.3451  270.3867 C   0  0  0  0  0  0  0  0  0  0  0  0
   93.6742   53.3006  269.9675 C   0  0  0  0  0  0  0  0  0  0  0  0
   93.6619   54.6467  271.0869 S   0  0  0  0  0  0  0  0  0  0  0  0
   92.4847   53.7751  272.0143 C   0  0  0  0  0  0  0  0  0  0  0  0
   92.0618   52.6441  271.5401 N   0  0  0  0  0  0  0  0  0  0  0  0
   92.0618   54.3270  273.1729 N   0  0  0  0  0  0  0  0  0  0  0  0
   92.3879   46.3500  265.8687 H   0  0  0  0  0  0  0  0  0  0  0  0
   91.0253   50.1098  267.3668 H   0  0  0  0  0  0  0  0  0  0  0  0
   97.3733   48.2821  268.2082 H   0  0  0  0  0  0  0  0  0  0  0  0
   96.8769   46.1468  267.1294 H   0  0  0  0  0  0  0  0  0  0  0  0
   94.8406   51.7329  267.2229 H   0  0  0  0  0  0  0  0  0  0  0  0
   95.2014   53.8155  268.5197 H   0  0  0  0  0  0  0  0  0  0  0  0
   91.7600   50.4657  269.9250 H   0  0  0  0  0  0  0  0  0  0  0  0
   91.3838   47.3909  263.8698 H   0  0  0  0  0  0  0  0  0  0  0  0
   88.0141   46.2918  262.2180 H   0  0  0  0  0  0  0  0  0  0  0  0
   88.6933   44.7502  262.8417 H   0  0  0  0  0  0  0  0  0  0  0  0
   86.8539   45.5415  264.2451 H   0  0  0  0  0  0  0  0  0  0  0  0
   87.7485   45.7855  269.0276 H   0  0  0  0  0  0  0  0  0  0  0  0
   88.2707   44.6728  267.7179 H   0  0  0  0  0  0  0  0  0  0  0  0
   89.3322   46.0332  268.2172 H   0  0  0  0  0  0  0  0  0  0  0  0
   91.3576   52.0742  271.9635 H   0  0  0  0  0  0  0  0  0  0  0  0
   92.5033   55.2062  273.3521 H   0  0  0  0  0  0  0  0  0  0  0  0
  1  4  2  0  0  0  0
  1  6  1  0  0  0  0
  1 11  1  0  0  0  0
  2  3  2  0  0  0  0
  2  5  1  0  0  0  0
  3  4  1  0  0  0  0
  3 15  1  0  0  0  0
  5  6  2  0  0  0  0
  5 10  1  0  0  0  0
  6  7  1  0  0  0  0
  7  8  2  0  0  0  0
  8  9  1  0  0  0  0
  9 10  2  0  0  0  0
 11 12  2  0  0  0  0
 11 14  1  0  0  0  0
 12 13  1  0  0  0  0
 13 27  2  0  0  0  0
 14 26  2  0  0  0  0
 15 16  2  0  0  0  0
 16 17  1  0  0  0  0
 16 21  1  0  0  0  0
 17 18  2  0  0  0  0
 18 19  1  0  0  0  0
 19 20  1  0  0  0  0
 20 21  2  0  0  0  0
 21 22  1  0  0  0  0
 22 23  2  0  0  0  0
 22 24  2  0  0  0  0
 22 25  1  0  0  0  0
 26 27  1  0  0  0  0
 26 30  1  0  0  0  0
 27 28  1  0  0  0  0
 28 29  1  0  0  0  0
 29 30  1  0  0  0  0
 29 31  2  0  0  0  0
  2 32  1  0  0  0  0
  4 33  1  0  0  0  0
  8 34  1  0  0  0  0
  9 35  1  0  0  0  0
 12 36  1  0  0  0  0
 13 37  1  0  0  0  0
 14 38  1  0  0  0  0
 17 39  1  0  0  0  0
 19 40  1  0  0  0  0
 19 41  1  0  0  0  0
 20 42  1  0  0  0  0
 25 43  1  0  0  0  0
 25 44  1  0  0  0  0
 25 45  1  0  0  0  0
 30 46  1  0  0  0  0
 31 47  1  0  0  0  0
M  END
> <ID>
67

> <IC50[uM]>
0.031

$$$$
67
  -OEChem-05192314313D
 Structure written by MMmdl.
 47 51  0     0  0  0  0  0  0999 V2000
   93.1004   49.7216  267.7155 C   0  0  0  0  0  0  0  0  0  0  0  0
   92.5890   47.2745  266.3896 C   0  0  0  0  0  0  0  0  0  0  0  0
   91.5683   48.2049  266.5759 C   0  0  0  0  0  0  0  0  0  0  0  0
   91.8300   49.4026  267.2297 C   0  0  0  0  0  0  0  0  0  0  0  0
   93.8878   47.5400  266.8820 C   0  0  0  0  0  0  0  0  0  0  0  0
   94.1599   48.7802  267.5411 C   0  0  0  0  0  0  0  0  0  0  0  0
   95.4145   49.0346  268.0280 N   0  0  0  0  0  0  0  0  0  0  0  0
   96.3713   48.0905  267.8536 C   0  0  0  0  0  0  0  0  0  0  0  0
   96.0910   46.8809  267.2282 C   0  0  0  0  0  0  0  0  0  0  0  0
   94.8599   46.5971  266.7393 N   0  0  0  0  0  0  0  0  0  0  0  0
   93.2846   50.9778  268.4857 C   0  0  0  0  0  0  0  0  0  0  0  0
   94.2454   51.9199  268.1045 C   0  0  0  0  0  0  0  0  0  0  0  0
   94.4590   53.0941  268.8278 C   0  0  0  0  0  0  0  0  0  0  0  0
   92.5073   51.1876  269.6303 C   0  0  0  0  0  0  0  0  0  0  0  0
   90.2493   47.9429  266.1975 N   0  0  0  0  0  0  0  0  0  0  0  0
   89.6938   47.1846  265.1577 C   0  0  0  0  0  0  0  0  0  0  0  0
   90.3836   46.9926  263.9558 C   0  0  0  0  0  0  0  0  0  0  0  0
   89.8604   46.3316  262.8928 N   0  0  0  0  0  0  0  0  0  0  0  0
   88.6069   45.8318  263.0224 C   0  0  0  0  0  0  0  0  0  0  0  0
   87.8451   45.9660  264.1837 C   0  0  0  0  0  0  0  0  0  0  0  0
   88.3928   46.6627  265.2677 C   0  0  0  0  0  0  0  0  0  0  0  0
   87.4640   46.8258  266.7979 S   0  0  0  0  0  0  0  0  0  0  0  0
   87.6173   48.2190  267.2276 O   0  0  0  0  0  0  0  0  0  0  0  0
   86.1278   46.2817  266.5368 O   0  0  0  0  0  0  0  0  0  0  0  0
   88.2895   45.7139  268.0726 C   0  0  0  0  0  0  0  0  0  0  0  0
   92.7122   52.3451  270.3867 C   0  0  0  0  0  0  0  0  0  0  0  0
   93.6742   53.3006  269.9675 C   0  0  0  0  0  0  0  0  0  0  0  0
   93.6619   54.6467  271.0869 S   0  0  0  0  0  0  0  0  0  0  0  0
   92.4847   53.7751  272.0143 C   0  0  0  0  0  0  0  0  0  0  0  0
   92.0618   52.6441  271.5401 N   0  0  0  0  0  0  0  0  0  0  0  0
   92.0618   54.3270  273.1729 N   0  0  0  0  0  0  0  0  0  0  0  0
   92.3879   46.3500  265.8687 H   0  0  0  0  0  0  0  0  0  0  0  0
   91.0253   50.1098  267.3668 H   0  0  0  0  0  0  0  0  0  0  0  0
   97.3733   48.2821  268.2082 H   0  0  0  0  0  0  0  0  0  0  0  0
   96.8769   46.1468  267.1294 H   0  0  0  0  0  0  0  0  0  0  0  0
   94.8406   51.7329  267.2229 H   0  0  0  0  0  0  0  0  0  0  0  0
   95.2014   53.8155  268.5197 H   0  0  0  0  0  0  0  0  0  0  0  0
   91.7600   50.4657  269.9250 H   0  0  0  0  0  0  0  0  0  0  0  0
   90.6373   47.9985  263.5900 H   0  0  0  0  0  0  0  0  0  0  0  0
   91.3062   46.4552  264.2204 H   0  0  0  0  0  0  0  0  0  0  0  0
   88.1763   45.3032  262.1848 H   0  0  0  0  0  0  0  0  0  0  0  0
   86.8539   45.5415  264.2451 H   0  0  0  0  0  0  0  0  0  0  0  0
   87.7485   45.7855  269.0276 H   0  0  0  0  0  0  0  0  0  0  0  0
   88.2707   44.6728  267.7179 H   0  0  0  0  0  0  0  0  0  0  0  0
   89.3322   46.0332  268.2172 H   0  0  0  0  0  0  0  0  0  0  0  0
   91.3576   52.0742  271.9635 H   0  0  0  0  0  0  0  0  0  0  0  0
   92.5033   55.2062  273.3521 H   0  0  0  0  0  0  0  0  0  0  0  0
  1  4  2  0  0  0  0
  1  6  1  0  0  0  0
  1 11  1  0  0  0  0
  2  3  2  0  0  0  0
  2  5  1  0  0  0  0
  3  4  1  0  0  0  0
  3 15  1  0  0  0  0
  5  6  2  0  0  0  0
  5 10  1  0  0  0  0
  6  7  1  0  0  0  0
  7  8  2  0  0  0  0
  8  9  1  0  0  0  0
  9 10  2  0  0  0  0
 11 12  2  0  0  0  0
 11 14  1  0  0  0  0
 12 13  1  0  0  0  0
 13 27  2  0  0  0  0
 14 26  2  0  0  0  0
 15 16  2  0  0  0  0
 16 17  1  0  0  0  0
 16 21  1  0  0  0  0
 17 18  1  0  0  0  0
 18 19  2  0  0  0  0
 19 20  1  0  0  0  0
 20 21  2  0  0  0  0
 21 22  1  0  0  0  0
 22 23  2  0  0  0  0
 22 24  2  0  0  0  0
 22 25  1  0  0  0  0
 26 27  1  0  0  0  0
 26 30  1  0  0  0  0
 27 28  1  0  0  0  0
 28 29  1  0  0  0  0
 29 30  1  0  0  0  0
 29 31  2  0  0  0  0
  2 32  1  0  0  0  0
  4 33  1  0  0  0  0
  8 34  1  0  0  0  0
  9 35  1  0  0  0  0
 12 36  1  0  0  0  0
 13 37  1  0  0  0  0
 14 38  1  0  0  0  0
 17 39  1  0  0  0  0
 17 40  1  0  0  0  0
 19 41  1  0  0  0  0
 20 42  1  0  0  0  0
 25 43  1  0  0  0  0
 25 44  1  0  0  0  0
 25 45  1  0  0  0  0
 30 46  1  0  0  0  0
 31 47  1  0  0  0  0
M  END
> <ID>
67

> <IC50[uM]>
0.031

$$$$
67
  -OEChem-05192314313D
 Structure written by MMmdl.
 47 51  0     1  0  0  0  0  0999 V2000
   93.1004   49.7216  267.7155 C   0  0  0  0  0  0  0  0  0  0  0  0
   92.5890   47.2745  266.3896 C   0  0  0  0  0  0  0  0  0  0  0  0
   91.5683   48.2049  266.5759 C   0  0  0  0  0  0  0  0  0  0  0  0
   91.8300   49.4026  267.2297 C   0  0  0  0  0  0  0  0  0  0  0  0
   93.8878   47.5400  266.8820 C   0  0  0  0  0  0  0  0  0  0  0  0
   94.1599   48.7802  267.5411 C   0  0  0  0  0  0  0  0  0  0  0  0
   95.4145   49.0346  268.0280 N   0  0  0  0  0  0  0  0  0  0  0  0
   96.3713   48.0905  267.8536 C   0  0  0  0  0  0  0  0  0  0  0  0
   96.0910   46.8809  267.2282 C   0  0  0  0  0  0  0  0  0  0  0  0
   94.8599   46.5971  266.7393 N   0  0  0  0  0  0  0  0  0  0  0  0
   93.2846   50.9778  268.4857 C   0  0  0  0  0  0  0  0  0  0  0  0
   94.2454   51.9199  268.1045 C   0  0  0  0  0  0  0  0  0  0  0  0
   94.4590   53.0941  268.8278 C   0  0  0  0  0  0  0  0  0  0  0  0
   92.5073   51.1876  269.6303 C   0  0  0  0  0  0  0  0  0  0  0  0
   90.2493   47.9429  266.1975 N   0  0  0  0  0  0  0  0  0  0  0  0
   89.6938   47.1846  265.1577 C   0  0  0  0  0  0  0  0  0  0  0  0
   90.3836   46.9926  263.9558 C   0  0  0  0  0  0  0  0  0  0  0  0
   89.8604   46.3316  262.8928 N   0  0  0  0  0  0  0  0  0  0  0  0
   88.6069   45.8318  263.0224 C   0  0  0  0  0  0  0  0  0  0  0  0
   87.8451   45.9660  264.1837 C   0  0  0  0  0  0  0  0  0  0  0  0
   88.3928   46.6627  265.2677 C   0  0  0  0  0  0  0  0  0  0  0  0
   87.4640   46.8258  266.7979 S   0  0  0  0  0  0  0  0  0  0  0  0
   87.6173   48.2190  267.2276 O   0  0  0  0  0  0  0  0  0  0  0  0
   86.1278   46.2817  266.5368 O   0  0  0  0  0  0  0  0  0  0  0  0
   88.2895   45.7139  268.0726 C   0  0  0  0  0  0  0  0  0  0  0  0
   92.7122   52.3451  270.3867 C   0  0  0  0  0  0  0  0  0  0  0  0
   93.6742   53.3006  269.9675 C   0  0  3  0  0  0  0  0  0  0  0  0
   93.6619   54.6467  271.0869 S   0  0  0  0  0  0  0  0  0  0  0  0
   92.4847   53.7751  272.0143 C   0  0  0  0  0  0  0  0  0  0  0  0
   92.0618   52.6441  271.5401 N   0  0  0  0  0  0  0  0  0  0  0  0
   92.0618   54.3270  273.1729 N   0  0  0  0  0  0  0  0  0  0  0  0
   92.3879   46.3500  265.8687 H   0  0  0  0  0  0  0  0  0  0  0  0
   91.0253   50.1098  267.3668 H   0  0  0  0  0  0  0  0  0  0  0  0
   97.3733   48.2821  268.2082 H   0  0  0  0  0  0  0  0  0  0  0  0
   96.8769   46.1468  267.1294 H   0  0  0  0  0  0  0  0  0  0  0  0
   94.8406   51.7329  267.2229 H   0  0  0  0  0  0  0  0  0  0  0  0
   95.2014   53.8155  268.5197 H   0  0  0  0  0  0  0  0  0  0  0  0
   91.7600   50.4657  269.9250 H   0  0  0  0  0  0  0  0  0  0  0  0
   89.5681   48.3823  266.7831 H   0  0  0  0  0  0  0  0  0  0  0  0
   91.3838   47.3909  263.8698 H   0  0  0  0  0  0  0  0  0  0  0  0
   88.1763   45.3032  262.1848 H   0  0  0  0  0  0  0  0  0  0  0  0
   86.8539   45.5415  264.2451 H   0  0  0  0  0  0  0  0  0  0  0  0
   87.7485   45.7855  269.0276 H   0  0  0  0  0  0  0  0  0  0  0  0
   88.2707   44.6728  267.7179 H   0  0  0  0  0  0  0  0  0  0  0  0
   89.3322   46.0332  268.2172 H   0  0  0  0  0  0  0  0  0  0  0  0
   92.9114   53.8021  269.3537 H   0  0  0  0  0  0  0  0  0  0  0  0
   92.5033   55.2062  273.3521 H   0  0  0  0  0  0  0  0  0  0  0  0
  1  4  2  0  0  0  0
  1  6  1  0  0  0  0
  1 11  1  0  0  0  0
  2  3  2  0  0  0  0
  2  5  1  0  0  0  0
  3  4  1  0  0  0  0
  3 15  1  0  0  0  0
  5  6  2  0  0  0  0
  5 10  1  0  0  0  0
  6  7  1  0  0  0  0
  7  8  2  0  0  0  0
  8  9  1  0  0  0  0
  9 10  2  0  0  0  0
 11 12  1  0  0  0  0
 11 14  2  0  0  0  0
 12 13  2  0  0  0  0
 13 27  1  0  0  0  0
 14 26  1  0  0  0  0
 15 16  1  0  0  0  0
 16 17  2  0  0  0  0
 16 21  1  0  0  0  0
 17 18  1  0  0  0  0
 18 19  2  0  0  0  0
 19 20  1  0  0  0  0
 20 21  2  0  0  0  0
 21 22  1  0  0  0  0
 22 23  2  0  0  0  0
 22 24  2  0  0  0  0
 22 25  1  0  0  0  0
 26 27  1  0  0  0  0
 26 30  2  0  0  0  0
 27 28  1  0  0  0  0
 28 29  1  0  0  0  0
 29 30  1  0  0  0  0
 29 31  2  0  0  0  0
  2 32  1  0  0  0  0
  4 33  1  0  0  0  0
  8 34  1  0  0  0  0
  9 35  1  0  0  0  0
 12 36  1  0  0  0  0
 13 37  1  0  0  0  0
 14 38  1  0  0  0  0
 15 39  1  0  0  0  0
 17 40  1  0  0  0  0
 19 41  1  0  0  0  0
 20 42  1  0  0  0  0
 25 43  1  0  0  0  0
 25 44  1  0  0  0  0
 25 45  1  0  0  0  0
 27 46  1  0  0  0  0
 31 47  1  0  0  0  0
M  END
> <ID>
67

> <IC50[uM]>
0.031

$$$$
67
  -OEChem-05192314313D
 Structure written by MMmdl.
 47 51  0     0  0  0  0  0  0999 V2000
   93.1004   49.7216  267.7155 C   0  0  0  0  0  0  0  0  0  0  0  0
   92.5890   47.2745  266.3896 C   0  0  0  0  0  0  0  0  0  0  0  0
   91.5683   48.2049  266.5759 C   0  0  0  0  0  0  0  0  0  0  0  0
   91.8300   49.4026  267.2297 C   0  0  0  0  0  0  0  0  0  0  0  0
   93.8878   47.5400  266.8820 C   0  0  0  0  0  0  0  0  0  0  0  0
   94.1599   48.7802  267.5411 C   0  0  0  0  0  0  0  0  0  0  0  0
   95.4145   49.0346  268.0280 N   0  0  0  0  0  0  0  0  0  0  0  0
   96.3713   48.0905  267.8536 C   0  0  0  0  0  0  0  0  0  0  0  0
   96.0910   46.8809  267.2282 C   0  0  0  0  0  0  0  0  0  0  0  0
   94.8599   46.5971  266.7393 N   0  0  0  0  0  0  0  0  0  0  0  0
   93.2846   50.9778  268.4857 C   0  0  0  0  0  0  0  0  0  0  0  0
   94.2454   51.9199  268.1045 C   0  0  0  0  0  0  0  0  0  0  0  0
   94.4590   53.0941  268.8278 C   0  0  0  0  0  0  0  0  0  0  0  0
   92.5073   51.1876  269.6303 C   0  0  0  0  0  0  0  0  0  0  0  0
   90.2493   47.9429  266.1975 N   0  0  0  0  0  0  0  0  0  0  0  0
   89.6938   47.1846  265.1577 C   0  0  0  0  0  0  0  0  0  0  0  0
   90.3836   46.9926  263.9558 C   0  0  0  0  0  0  0  0  0  0  0  0
   89.8604   46.3316  262.8928 N   0  0  0  0  0  0  0  0  0  0  0  0
   88.6069   45.8318  263.0224 C   0  0  0  0  0  0  0  0  0  0  0  0
   87.8451   45.9660  264.1837 C   0  0  0  0  0  0  0  0  0  0  0  0
   88.3928   46.6627  265.2677 C   0  0  0  0  0  0  0  0  0  0  0  0
   87.4640   46.8258  266.7979 S   0  0  0  0  0  0  0  0  0  0  0  0
   87.6173   48.2190  267.2276 O   0  0  0  0  0  0  0  0  0  0  0  0
   86.1278   46.2817  266.5368 O   0  0  0  0  0  0  0  0  0  0  0  0
   88.2895   45.7139  268.0726 C   0  0  0  0  0  0  0  0  0  0  0  0
   92.7122   52.3451  270.3867 C   0  0  0  0  0  0  0  0  0  0  0  0
   93.6742   53.3006  269.9675 C   0  0  0  0  0  0  0  0  0  0  0  0
   93.6619   54.6467  271.0869 S   0  0  0  0  0  0  0  0  0  0  0  0
   92.4847   53.7751  272.0143 C   0  0  0  0  0  0  0  0  0  0  0  0
   92.0618   52.6441  271.5401 N   0  0  0  0  0  0  0  0  0  0  0  0
   92.0618   54.3270  273.1729 N   0  0  0  0  0  0  0  0  0  0  0  0
   92.3879   46.3500  265.8687 H   0  0  0  0  0  0  0  0  0  0  0  0
   91.0253   50.1098  267.3668 H   0  0  0  0  0  0  0  0  0  0  0  0
   97.3733   48.2821  268.2082 H   0  0  0  0  0  0  0  0  0  0  0  0
   96.8769   46.1468  267.1294 H   0  0  0  0  0  0  0  0  0  0  0  0
   95.2084   51.3884  268.0894 H   0  0  0  0  0  0  0  0  0  0  0  0
   93.9824   52.2314  267.0828 H   0  0  0  0  0  0  0  0  0  0  0  0
   95.2014   53.8155  268.5197 H   0  0  0  0  0  0  0  0  0  0  0  0
   91.7600   50.4657  269.9250 H   0  0  0  0  0  0  0  0  0  0  0  0
   89.5681   48.3823  266.7831 H   0  0  0  0  0  0  0  0  0  0  0  0
   91.3838   47.3909  263.8698 H   0  0  0  0  0  0  0  0  0  0  0  0
   88.1763   45.3032  262.1848 H   0  0  0  0  0  0  0  0  0  0  0  0
   86.8539   45.5415  264.2451 H   0  0  0  0  0  0  0  0  0  0  0  0
   87.7485   45.7855  269.0276 H   0  0  0  0  0  0  0  0  0  0  0  0
   88.2707   44.6728  267.7179 H   0  0  0  0  0  0  0  0  0  0  0  0
   89.3322   46.0332  268.2172 H   0  0  0  0  0  0  0  0  0  0  0  0
   92.5033   55.2062  273.3521 H   0  0  0  0  0  0  0  0  0  0  0  0
  1  4  2  0  0  0  0
  1  6  1  0  0  0  0
  1 11  1  0  0  0  0
  2  3  2  0  0  0  0
  2  5  1  0  0  0  0
  3  4  1  0  0  0  0
  3 15  1  0  0  0  0
  5  6  2  0  0  0  0
  5 10  1  0  0  0  0
  6  7  1  0  0  0  0
  7  8  2  0  0  0  0
  8  9  1  0  0  0  0
  9 10  2  0  0  0  0
 11 12  1  0  0  0  0
 11 14  2  0  0  0  0
 12 13  1  0  0  0  0
 13 27  2  0  0  0  0
 14 26  1  0  0  0  0
 15 16  1  0  0  0  0
 16 17  2  0  0  0  0
 16 21  1  0  0  0  0
 17 18  1  0  0  0  0
 18 19  2  0  0  0  0
 19 20  1  0  0  0  0
 20 21  2  0  0  0  0
 21 22  1  0  0  0  0
 22 23  2  0  0  0  0
 22 24  2  0  0  0  0
 22 25  1  0  0  0  0
 26 27  1  0  0  0  0
 26 30  2  0  0  0  0
 27 28  1  0  0  0  0
 28 29  1  0  0  0  0
 29 30  1  0  0  0  0
 29 31  2  0  0  0  0
  2 32  1  0  0  0  0
  4 33  1  0  0  0  0
  8 34  1  0  0  0  0
  9 35  1  0  0  0  0
 12 36  1  0  0  0  0
 12 37  1  0  0  0  0
 13 38  1  0  0  0  0
 14 39  1  0  0  0  0
 15 40  1  0  0  0  0
 17 41  1  0  0  0  0
 19 42  1  0  0  0  0
 20 43  1  0  0  0  0
 25 44  1  0  0  0  0
 25 45  1  0  0  0  0
 25 46  1  0  0  0  0
 31 47  1  0  0  0  0
M  END
> <ID>
67

> <IC50[uM]>
0.031

$$$$
67
  -OEChem-05192314313D
 Structure written by MMmdl.
 47 51  0     0  0  0  0  0  0999 V2000
   93.1004   49.7216  267.7155 C   0  0  0  0  0  0  0  0  0  0  0  0
   92.5890   47.2745  266.3896 C   0  0  0  0  0  0  0  0  0  0  0  0
   91.5683   48.2049  266.5759 C   0  0  0  0  0  0  0  0  0  0  0  0
   91.8300   49.4026  267.2297 C   0  0  0  0  0  0  0  0  0  0  0  0
   93.8878   47.5400  266.8820 C   0  0  0  0  0  0  0  0  0  0  0  0
   94.1599   48.7802  267.5411 C   0  0  0  0  0  0  0  0  0  0  0  0
   95.4145   49.0346  268.0280 N   0  0  0  0  0  0  0  0  0  0  0  0
   96.3713   48.0905  267.8536 C   0  0  0  0  0  0  0  0  0  0  0  0
   96.0910   46.8809  267.2282 C   0  0  0  0  0  0  0  0  0  0  0  0
   94.8599   46.5971  266.7393 N   0  0  0  0  0  0  0  0  0  0  0  0
   93.2846   50.9778  268.4857 C   0  0  0  0  0  0  0  0  0  0  0  0
   94.2454   51.9199  268.1045 C   0  0  0  0  0  0  0  0  0  0  0  0
   94.4590   53.0941  268.8278 C   0  0  0  0  0  0  0  0  0  0  0  0
   92.5073   51.1876  269.6303 C   0  0  0  0  0  0  0  0  0  0  0  0
   90.2493   47.9429  266.1975 N   0  0  0  0  0  0  0  0  0  0  0  0
   89.6938   47.1846  265.1577 C   0  0  0  0  0  0  0  0  0  0  0  0
   90.3836   46.9926  263.9558 C   0  0  0  0  0  0  0  0  0  0  0  0
   89.8604   46.3316  262.8928 N   0  0  0  0  0  0  0  0  0  0  0  0
   88.6069   45.8318  263.0224 C   0  0  0  0  0  0  0  0  0  0  0  0
   87.8451   45.9660  264.1837 C   0  0  0  0  0  0  0  0  0  0  0  0
   88.3928   46.6627  265.2677 C   0  0  0  0  0  0  0  0  0  0  0  0
   87.4640   46.8258  266.7979 S   0  0  0  0  0  0  0  0  0  0  0  0
   87.6173   48.2190  267.2276 O   0  0  0  0  0  0  0  0  0  0  0  0
   86.1278   46.2817  266.5368 O   0  0  0  0  0  0  0  0  0  0  0  0
   88.2895   45.7139  268.0726 C   0  0  0  0  0  0  0  0  0  0  0  0
   92.7122   52.3451  270.3867 C   0  0  0  0  0  0  0  0  0  0  0  0
   93.6742   53.3006  269.9675 C   0  0  0  0  0  0  0  0  0  0  0  0
   93.6619   54.6467  271.0869 S   0  0  0  0  0  0  0  0  0  0  0  0
   92.4847   53.7751  272.0143 C   0  0  0  0  0  0  0  0  0  0  0  0
   92.0618   52.6441  271.5401 N   0  0  0  0  0  0  0  0  0  0  0  0
   92.0618   54.3270  273.1729 N   0  0  0  0  0  0  0  0  0  0  0  0
   92.3879   46.3500  265.8687 H   0  0  0  0  0  0  0  0  0  0  0  0
   91.0253   50.1098  267.3668 H   0  0  0  0  0  0  0  0  0  0  0  0
   97.3733   48.2821  268.2082 H   0  0  0  0  0  0  0  0  0  0  0  0
   96.8769   46.1468  267.1294 H   0  0  0  0  0  0  0  0  0  0  0  0
   94.8406   51.7329  267.2229 H   0  0  0  0  0  0  0  0  0  0  0  0
   95.2014   53.8155  268.5197 H   0  0  0  0  0  0  0  0  0  0  0  0
   91.4554   51.1950  269.3085 H   0  0  0  0  0  0  0  0  0  0  0  0
   92.6803   50.3312  270.2986 H   0  0  0  0  0  0  0  0  0  0  0  0
   89.5681   48.3823  266.7831 H   0  0  0  0  0  0  0  0  0  0  0  0
   91.3838   47.3909  263.8698 H   0  0  0  0  0  0  0  0  0  0  0  0
   88.1763   45.3032  262.1848 H   0  0  0  0  0  0  0  0  0  0  0  0
   86.8539   45.5415  264.2451 H   0  0  0  0  0  0  0  0  0  0  0  0
   87.7485   45.7855  269.0276 H   0  0  0  0  0  0  0  0  0  0  0  0
   88.2707   44.6728  267.7179 H   0  0  0  0  0  0  0  0  0  0  0  0
   89.3322   46.0332  268.2172 H   0  0  0  0  0  0  0  0  0  0  0  0
   92.5033   55.2062  273.3521 H   0  0  0  0  0  0  0  0  0  0  0  0
  1  4  2  0  0  0  0
  1  6  1  0  0  0  0
  1 11  1  0  0  0  0
  2  3  2  0  0  0  0
  2  5  1  0  0  0  0
  3  4  1  0  0  0  0
  3 15  1  0  0  0  0
  5  6  2  0  0  0  0
  5 10  1  0  0  0  0
  6  7  1  0  0  0  0
  7  8  2  0  0  0  0
  8  9  1  0  0  0  0
  9 10  2  0  0  0  0
 11 12  2  0  0  0  0
 11 14  1  0  0  0  0
 12 13  1  0  0  0  0
 13 27  2  0  0  0  0
 14 26  1  0  0  0  0
 15 16  1  0  0  0  0
 16 17  2  0  0  0  0
 16 21  1  0  0  0  0
 17 18  1  0  0  0  0
 18 19  2  0  0  0  0
 19 20  1  0  0  0  0
 20 21  2  0  0  0  0
 21 22  1  0  0  0  0
 22 23  2  0  0  0  0
 22 24  2  0  0  0  0
 22 25  1  0  0  0  0
 26 27  1  0  0  0  0
 26 30  2  0  0  0  0
 27 28  1  0  0  0  0
 28 29  1  0  0  0  0
 29 30  1  0  0  0  0
 29 31  2  0  0  0  0
  2 32  1  0  0  0  0
  4 33  1  0  0  0  0
  8 34  1  0  0  0  0
  9 35  1  0  0  0  0
 12 36  1  0  0  0  0
 13 37  1  0  0  0  0
 14 38  1  0  0  0  0
 14 39  1  0  0  0  0
 15 40  1  0  0  0  0
 17 41  1  0  0  0  0
 19 42  1  0  0  0  0
 20 43  1  0  0  0  0
 25 44  1  0  0  0  0
 25 45  1  0  0  0  0
 25 46  1  0  0  0  0
 31 47  1  0  0  0  0
M  END
> <ID>
67

> <IC50[uM]>
0.031

$$$$
67
  -OEChem-05192314313D
 Structure written by MMmdl.
 47 51  0     1  0  0  0  0  0999 V2000
   93.1004   49.7216  267.7155 C   0  0  0  0  0  0  0  0  0  0  0  0
   92.5890   47.2745  266.3896 C   0  0  0  0  0  0  0  0  0  0  0  0
   91.5683   48.2049  266.5759 C   0  0  0  0  0  0  0  0  0  0  0  0
   91.8300   49.4026  267.2297 C   0  0  0  0  0  0  0  0  0  0  0  0
   93.8878   47.5400  266.8820 C   0  0  0  0  0  0  0  0  0  0  0  0
   94.1599   48.7802  267.5411 C   0  0  0  0  0  0  0  0  0  0  0  0
   95.4145   49.0346  268.0280 N   0  0  0  0  0  0  0  0  0  0  0  0
   96.3713   48.0905  267.8536 C   0  0  0  0  0  0  0  0  0  0  0  0
   96.0910   46.8809  267.2282 C   0  0  0  0  0  0  0  0  0  0  0  0
   94.8599   46.5971  266.7393 N   0  0  0  0  0  0  0  0  0  0  0  0
   93.2846   50.9778  268.4857 C   0  0  0  0  0  0  0  0  0  0  0  0
   94.2454   51.9199  268.1045 C   0  0  0  0  0  0  0  0  0  0  0  0
   94.4590   53.0941  268.8278 C   0  0  0  0  0  0  0  0  0  0  0  0
   92.5073   51.1876  269.6303 C   0  0  0  0  0  0  0  0  0  0  0  0
   90.2493   47.9429  266.1975 N   0  0  0  0  0  0  0  0  0  0  0  0
   89.6938   47.1846  265.1577 C   0  0  0  0  0  0  0  0  0  0  0  0
   90.3836   46.9926  263.9558 C   0  0  0  0  0  0  0  0  0  0  0  0
   89.8604   46.3316  262.8928 N   0  0  0  0  0  0  0  0  0  0  0  0
   88.6069   45.8318  263.0224 C   0  0  0  0  0  0  0  0  0  0  0  0
   87.8451   45.9660  264.1837 C   0  0  0  0  0  0  0  0  0  0  0  0
   88.3928   46.6627  265.2677 C   0  0  0  0  0  0  0  0  0  0  0  0
   87.4640   46.8258  266.7979 S   0  0  0  0  0  0  0  0  0  0  0  0
   87.6173   48.2190  267.2276 O   0  0  0  0  0  0  0  0  0  0  0  0
   86.1278   46.2817  266.5368 O   0  0  0  0  0  0  0  0  0  0  0  0
   88.2895   45.7139  268.0726 C   0  0  0  0  0  0  0  0  0  0  0  0
   92.7122   52.3451  270.3867 C   0  0  0  0  0  0  0  0  0  0  0  0
   93.6742   53.3006  269.9675 C   0  0  3  0  0  0  0  0  0  0  0  0
   93.6619   54.6467  271.0869 S   0  0  0  0  0  0  0  0  0  0  0  0
   92.4847   53.7751  272.0143 C   0  0  0  0  0  0  0  0  0  0  0  0
   92.0618   52.6441  271.5401 N   0  0  0  0  0  0  0  0  0  0  0  0
   92.0618   54.3270  273.1729 N   0  0  0  0  0  0  0  0  0  0  0  0
   92.3879   46.3500  265.8687 H   0  0  0  0  0  0  0  0  0  0  0  0
   91.0253   50.1098  267.3668 H   0  0  0  0  0  0  0  0  0  0  0  0
   97.3733   48.2821  268.2082 H   0  0  0  0  0  0  0  0  0  0  0  0
   96.8769   46.1468  267.1294 H   0  0  0  0  0  0  0  0  0  0  0  0
   94.6713   45.7245  266.2887 H   0  0  0  0  0  0  0  0  0  0  0  0
   94.8406   51.7329  267.2229 H   0  0  0  0  0  0  0  0  0  0  0  0
   95.2014   53.8155  268.5197 H   0  0  0  0  0  0  0  0  0  0  0  0
   91.7600   50.4657  269.9250 H   0  0  0  0  0  0  0  0  0  0  0  0
   91.3838   47.3909  263.8698 H   0  0  0  0  0  0  0  0  0  0  0  0
   88.1763   45.3032  262.1848 H   0  0  0  0  0  0  0  0  0  0  0  0
   86.8539   45.5415  264.2451 H   0  0  0  0  0  0  0  0  0  0  0  0
   87.7485   45.7855  269.0276 H   0  0  0  0  0  0  0  0  0  0  0  0
   88.2707   44.6728  267.7179 H   0  0  0  0  0  0  0  0  0  0  0  0
   89.3322   46.0332  268.2172 H   0  0  0  0  0  0  0  0  0  0  0  0
   92.9114   53.8021  269.3537 H   0  0  0  0  0  0  0  0  0  0  0  0
   92.5033   55.2062  273.3521 H   0  0  0  0  0  0  0  0  0  0  0  0
  1  4  2  0  0  0  0
  1  6  1  0  0  0  0
  1 11  1  0  0  0  0
  2  3  1  0  0  0  0
  2  5  2  0  0  0  0
  3  4  1  0  0  0  0
  3 15  2  3  0  0  0
  5  6  1  0  0  0  0
  5 10  1  0  0  0  0
  6  7  2  0  0  0  0
  7  8  1  0  0  0  0
  8  9  2  0  0  0  0
  9 10  1  0  0  0  0
 11 12  1  0  0  0  0
 11 14  2  0  0  0  0
 12 13  2  0  0  0  0
 13 27  1  0  0  0  0
 14 26  1  0  0  0  0
 15 16  1  0  0  0  0
 16 17  2  0  0  0  0
 16 21  1  0  0  0  0
 17 18  1  0  0  0  0
 18 19  2  0  0  0  0
 19 20  1  0  0  0  0
 20 21  2  0  0  0  0
 21 22  1  0  0  0  0
 22 23  2  0  0  0  0
 22 24  2  0  0  0  0
 22 25  1  0  0  0  0
 26 27  1  0  0  0  0
 26 30  2  0  0  0  0
 27 28  1  0  0  0  0
 28 29  1  0  0  0  0
 29 30  1  0  0  0  0
 29 31  2  0  0  0  0
  2 32  1  0  0  0  0
  4 33  1  0  0  0  0
  8 34  1  0  0  0  0
  9 35  1  0  0  0  0
 10 36  1  0  0  0  0
 12 37  1  0  0  0  0
 13 38  1  0  0  0  0
 14 39  1  0  0  0  0
 17 40  1  0  0  0  0
 19 41  1  0  0  0  0
 20 42  1  0  0  0  0
 25 43  1  0  0  0  0
 25 44  1  0  0  0  0
 25 45  1  0  0  0  0
 27 46  1  0  0  0  0
 31 47  1  0  0  0  0
M  END
> <ID>
67

> <IC50[uM]>
0.031

$$$$
67
  -OEChem-05192314313D
 Structure written by MMmdl.
 47 51  0     0  0  0  0  0  0999 V2000
   93.1004   49.7216  267.7155 C   0  0  0  0  0  0  0  0  0  0  0  0
   92.5890   47.2745  266.3896 C   0  0  0  0  0  0  0  0  0  0  0  0
   91.5683   48.2049  266.5759 C   0  0  0  0  0  0  0  0  0  0  0  0
   91.8300   49.4026  267.2297 C   0  0  0  0  0  0  0  0  0  0  0  0
   93.8878   47.5400  266.8820 C   0  0  0  0  0  0  0  0  0  0  0  0
   94.1599   48.7802  267.5411 C   0  0  0  0  0  0  0  0  0  0  0  0
   95.4145   49.0346  268.0280 N   0  0  0  0  0  0  0  0  0  0  0  0
   96.3713   48.0905  267.8536 C   0  0  0  0  0  0  0  0  0  0  0  0
   96.0910   46.8809  267.2282 C   0  0  0  0  0  0  0  0  0  0  0  0
   94.8599   46.5971  266.7393 N   0  0  0  0  0  0  0  0  0  0  0  0
   93.2846   50.9778  268.4857 C   0  0  0  0  0  0  0  0  0  0  0  0
   94.2454   51.9199  268.1045 C   0  0  0  0  0  0  0  0  0  0  0  0
   94.4590   53.0941  268.8278 C   0  0  0  0  0  0  0  0  0  0  0  0
   92.5073   51.1876  269.6303 C   0  0  0  0  0  0  0  0  0  0  0  0
   90.2493   47.9429  266.1975 N   0  0  0  0  0  0  0  0  0  0  0  0
   89.6938   47.1846  265.1577 C   0  0  0  0  0  0  0  0  0  0  0  0
   90.3836   46.9926  263.9558 C   0  0  0  0  0  0  0  0  0  0  0  0
   89.8604   46.3316  262.8928 N   0  0  0  0  0  0  0  0  0  0  0  0
   88.6069   45.8318  263.0224 C   0  0  0  0  0  0  0  0  0  0  0  0
   87.8451   45.9660  264.1837 C   0  0  0  0  0  0  0  0  0  0  0  0
   88.3928   46.6627  265.2677 C   0  0  0  0  0  0  0  0  0  0  0  0
   87.4640   46.8258  266.7979 S   0  0  0  0  0  0  0  0  0  0  0  0
   87.6173   48.2190  267.2276 O   0  0  0  0  0  0  0  0  0  0  0  0
   86.1278   46.2817  266.5368 O   0  0  0  0  0  0  0  0  0  0  0  0
   88.2895   45.7139  268.0726 C   0  0  0  0  0  0  0  0  0  0  0  0
   92.7122   52.3451  270.3867 C   0  0  0  0  0  0  0  0  0  0  0  0
   93.6742   53.3006  269.9675 C   0  0  0  0  0  0  0  0  0  0  0  0
   93.6619   54.6467  271.0869 S   0  0  0  0  0  0  0  0  0  0  0  0
   92.4847   53.7751  272.0143 C   0  0  0  0  0  0  0  0  0  0  0  0
   92.0618   52.6441  271.5401 N   0  0  0  0  0  0  0  0  0  0  0  0
   92.0618   54.3270  273.1729 N   0  0  0  0  0  0  0  0  0  0  0  0
   92.3879   46.3500  265.8687 H   0  0  0  0  0  0  0  0  0  0  0  0
   91.0253   50.1098  267.3668 H   0  0  0  0  0  0  0  0  0  0  0  0
   97.3733   48.2821  268.2082 H   0  0  0  0  0  0  0  0  0  0  0  0
   96.8769   46.1468  267.1294 H   0  0  0  0  0  0  0  0  0  0  0  0
   94.6713   45.7245  266.2887 H   0  0  0  0  0  0  0  0  0  0  0  0
   95.2084   51.3884  268.0894 H   0  0  0  0  0  0  0  0  0  0  0  0
   93.9824   52.2314  267.0828 H   0  0  0  0  0  0  0  0  0  0  0  0
   95.2014   53.8155  268.5197 H   0  0  0  0  0  0  0  0  0  0  0  0
   91.7600   50.4657  269.9250 H   0  0  0  0  0  0  0  0  0  0  0  0
   91.3838   47.3909  263.8698 H   0  0  0  0  0  0  0  0  0  0  0  0
   88.1763   45.3032  262.1848 H   0  0  0  0  0  0  0  0  0  0  0  0
   86.8539   45.5415  264.2451 H   0  0  0  0  0  0  0  0  0  0  0  0
   87.7485   45.7855  269.0276 H   0  0  0  0  0  0  0  0  0  0  0  0
   88.2707   44.6728  267.7179 H   0  0  0  0  0  0  0  0  0  0  0  0
   89.3322   46.0332  268.2172 H   0  0  0  0  0  0  0  0  0  0  0  0
   92.5033   55.2062  273.3521 H   0  0  0  0  0  0  0  0  0  0  0  0
  1  4  2  0  0  0  0
  1  6  1  0  0  0  0
  1 11  1  0  0  0  0
  2  3  1  0  0  0  0
  2  5  2  0  0  0  0
  3  4  1  0  0  0  0
  3 15  2  3  0  0  0
  5  6  1  0  0  0  0
  5 10  1  0  0  0  0
  6  7  2  0  0  0  0
  7  8  1  0  0  0  0
  8  9  2  0  0  0  0
  9 10  1  0  0  0  0
 11 12  1  0  0  0  0
 11 14  2  0  0  0  0
 12 13  1  0  0  0  0
 13 27  2  0  0  0  0
 14 26  1  0  0  0  0
 15 16  1  0  0  0  0
 16 17  2  0  0  0  0
 16 21  1  0  0  0  0
 17 18  1  0  0  0  0
 18 19  2  0  0  0  0
 19 20  1  0  0  0  0
 20 21  2  0  0  0  0
 21 22  1  0  0  0  0
 22 23  2  0  0  0  0
 22 24  2  0  0  0  0
 22 25  1  0  0  0  0
 26 27  1  0  0  0  0
 26 30  2  0  0  0  0
 27 28  1  0  0  0  0
 28 29  1  0  0  0  0
 29 30  1  0  0  0  0
 29 31  2  0  0  0  0
  2 32  1  0  0  0  0
  4 33  1  0  0  0  0
  8 34  1  0  0  0  0
  9 35  1  0  0  0  0
 10 36  1  0  0  0  0
 12 37  1  0  0  0  0
 12 38  1  0  0  0  0
 13 39  1  0  0  0  0
 14 40  1  0  0  0  0
 17 41  1  0  0  0  0
 19 42  1  0  0  0  0
 20 43  1  0  0  0  0
 25 44  1  0  0  0  0
 25 45  1  0  0  0  0
 25 46  1  0  0  0  0
 31 47  1  0  0  0  0
M  END
> <ID>
67

> <IC50[uM]>
0.031

$$$$
67
  -OEChem-05192314313D
 Structure written by MMmdl.
 47 51  0     0  0  0  0  0  0999 V2000
   93.1004   49.7216  267.7155 C   0  0  0  0  0  0  0  0  0  0  0  0
   92.5890   47.2745  266.3896 C   0  0  0  0  0  0  0  0  0  0  0  0
   91.5683   48.2049  266.5759 C   0  0  0  0  0  0  0  0  0  0  0  0
   91.8300   49.4026  267.2297 C   0  0  0  0  0  0  0  0  0  0  0  0
   93.8878   47.5400  266.8820 C   0  0  0  0  0  0  0  0  0  0  0  0
   94.1599   48.7802  267.5411 C   0  0  0  0  0  0  0  0  0  0  0  0
   95.4145   49.0346  268.0280 N   0  0  0  0  0  0  0  0  0  0  0  0
   96.3713   48.0905  267.8536 C   0  0  0  0  0  0  0  0  0  0  0  0
   96.0910   46.8809  267.2282 C   0  0  0  0  0  0  0  0  0  0  0  0
   94.8599   46.5971  266.7393 N   0  0  0  0  0  0  0  0  0  0  0  0
   93.2846   50.9778  268.4857 C   0  0  0  0  0  0  0  0  0  0  0  0
   94.2454   51.9199  268.1045 C   0  0  0  0  0  0  0  0  0  0  0  0
   94.4590   53.0941  268.8278 C   0  0  0  0  0  0  0  0  0  0  0  0
   92.5073   51.1876  269.6303 C   0  0  0  0  0  0  0  0  0  0  0  0
   90.2493   47.9429  266.1975 N   0  0  0  0  0  0  0  0  0  0  0  0
   89.6938   47.1846  265.1577 C   0  0  0  0  0  0  0  0  0  0  0  0
   90.3836   46.9926  263.9558 C   0  0  0  0  0  0  0  0  0  0  0  0
   89.8604   46.3316  262.8928 N   0  0  0  0  0  0  0  0  0  0  0  0
   88.6069   45.8318  263.0224 C   0  0  0  0  0  0  0  0  0  0  0  0
   87.8451   45.9660  264.1837 C   0  0  0  0  0  0  0  0  0  0  0  0
   88.3928   46.6627  265.2677 C   0  0  0  0  0  0  0  0  0  0  0  0
   87.4640   46.8258  266.7979 S   0  0  0  0  0  0  0  0  0  0  0  0
   87.6173   48.2190  267.2276 O   0  0  0  0  0  0  0  0  0  0  0  0
   86.1278   46.2817  266.5368 O   0  0  0  0  0  0  0  0  0  0  0  0
   88.2895   45.7139  268.0726 C   0  0  0  0  0  0  0  0  0  0  0  0
   92.7122   52.3451  270.3867 C   0  0  0  0  0  0  0  0  0  0  0  0
   93.6742   53.3006  269.9675 C   0  0  0  0  0  0  0  0  0  0  0  0
   93.6619   54.6467  271.0869 S   0  0  0  0  0  0  0  0  0  0  0  0
   92.4847   53.7751  272.0143 C   0  0  0  0  0  0  0  0  0  0  0  0
   92.0618   52.6441  271.5401 N   0  0  0  0  0  0  0  0  0  0  0  0
   92.0618   54.3270  273.1729 N   0  0  0  0  0  0  0  0  0  0  0  0
   92.3879   46.3500  265.8687 H   0  0  0  0  0  0  0  0  0  0  0  0
   91.0253   50.1098  267.3668 H   0  0  0  0  0  0  0  0  0  0  0  0
   97.3733   48.2821  268.2082 H   0  0  0  0  0  0  0  0  0  0  0  0
   96.8769   46.1468  267.1294 H   0  0  0  0  0  0  0  0  0  0  0  0
   94.6713   45.7245  266.2887 H   0  0  0  0  0  0  0  0  0  0  0  0
   94.8406   51.7329  267.2229 H   0  0  0  0  0  0  0  0  0  0  0  0
   95.2014   53.8155  268.5197 H   0  0  0  0  0  0  0  0  0  0  0  0
   91.4554   51.1950  269.3085 H   0  0  0  0  0  0  0  0  0  0  0  0
   92.6803   50.3312  270.2986 H   0  0  0  0  0  0  0  0  0  0  0  0
   91.3838   47.3909  263.8698 H   0  0  0  0  0  0  0  0  0  0  0  0
   88.1763   45.3032  262.1848 H   0  0  0  0  0  0  0  0  0  0  0  0
   86.8539   45.5415  264.2451 H   0  0  0  0  0  0  0  0  0  0  0  0
   87.7485   45.7855  269.0276 H   0  0  0  0  0  0  0  0  0  0  0  0
   88.2707   44.6728  267.7179 H   0  0  0  0  0  0  0  0  0  0  0  0
   89.3322   46.0332  268.2172 H   0  0  0  0  0  0  0  0  0  0  0  0
   92.5033   55.2062  273.3521 H   0  0  0  0  0  0  0  0  0  0  0  0
  1  4  2  0  0  0  0
  1  6  1  0  0  0  0
  1 11  1  0  0  0  0
  2  3  1  0  0  0  0
  2  5  2  0  0  0  0
  3  4  1  0  0  0  0
  3 15  2  3  0  0  0
  5  6  1  0  0  0  0
  5 10  1  0  0  0  0
  6  7  2  0  0  0  0
  7  8  1  0  0  0  0
  8  9  2  0  0  0  0
  9 10  1  0  0  0  0
 11 12  2  0  0  0  0
 11 14  1  0  0  0  0
 12 13  1  0  0  0  0
 13 27  2  0  0  0  0
 14 26  1  0  0  0  0
 15 16  1  0  0  0  0
 16 17  2  0  0  0  0
 16 21  1  0  0  0  0
 17 18  1  0  0  0  0
 18 19  2  0  0  0  0
 19 20  1  0  0  0  0
 20 21  2  0  0  0  0
 21 22  1  0  0  0  0
 22 23  2  0  0  0  0
 22 24  2  0  0  0  0
 22 25  1  0  0  0  0
 26 27  1  0  0  0  0
 26 30  2  0  0  0  0
 27 28  1  0  0  0  0
 28 29  1  0  0  0  0
 29 30  1  0  0  0  0
 29 31  2  0  0  0  0
  2 32  1  0  0  0  0
  4 33  1  0  0  0  0
  8 34  1  0  0  0  0
  9 35  1  0  0  0  0
 10 36  1  0  0  0  0
 12 37  1  0  0  0  0
 13 38  1  0  0  0  0
 14 39  1  0  0  0  0
 14 40  1  0  0  0  0
 17 41  1  0  0  0  0
 19 42  1  0  0  0  0
 20 43  1  0  0  0  0
 25 44  1  0  0  0  0
 25 45  1  0  0  0  0
 25 46  1  0  0  0  0
 31 47  1  0  0  0  0
M  END
> <ID>
67

> <IC50[uM]>
0.031

$$$$
67
  -OEChem-05192314313D
 Structure written by MMmdl.
 47 51  0     1  0  0  0  0  0999 V2000
   93.1004   49.7216  267.7155 C   0  0  0  0  0  0  0  0  0  0  0  0
   92.5890   47.2745  266.3896 C   0  0  0  0  0  0  0  0  0  0  0  0
   91.5683   48.2049  266.5759 C   0  0  0  0  0  0  0  0  0  0  0  0
   91.8300   49.4026  267.2297 C   0  0  0  0  0  0  0  0  0  0  0  0
   93.8878   47.5400  266.8820 C   0  0  0  0  0  0  0  0  0  0  0  0
   94.1599   48.7802  267.5411 C   0  0  3  0  0  0  0  0  0  0  0  0
   95.4145   49.0346  268.0280 N   0  0  0  0  0  0  0  0  0  0  0  0
   96.3713   48.0905  267.8536 C   0  0  0  0  0  0  0  0  0  0  0  0
   96.0910   46.8809  267.2282 C   0  0  0  0  0  0  0  0  0  0  0  0
   94.8599   46.5971  266.7393 N   0  0  0  0  0  0  0  0  0  0  0  0
   93.2846   50.9778  268.4857 C   0  0  0  0  0  0  0  0  0  0  0  0
   94.2454   51.9199  268.1045 C   0  0  0  0  0  0  0  0  0  0  0  0
   94.4590   53.0941  268.8278 C   0  0  0  0  0  0  0  0  0  0  0  0
   92.5073   51.1876  269.6303 C   0  0  0  0  0  0  0  0  0  0  0  0
   90.2493   47.9429  266.1975 N   0  0  0  0  0  0  0  0  0  0  0  0
   89.6938   47.1846  265.1577 C   0  0  0  0  0  0  0  0  0  0  0  0
   90.3836   46.9926  263.9558 C   0  0  0  0  0  0  0  0  0  0  0  0
   89.8604   46.3316  262.8928 N   0  0  0  0  0  0  0  0  0  0  0  0
   88.6069   45.8318  263.0224 C   0  0  0  0  0  0  0  0  0  0  0  0
   87.8451   45.9660  264.1837 C   0  0  0  0  0  0  0  0  0  0  0  0
   88.3928   46.6627  265.2677 C   0  0  0  0  0  0  0  0  0  0  0  0
   87.4640   46.8258  266.7979 S   0  0  0  0  0  0  0  0  0  0  0  0
   87.6173   48.2190  267.2276 O   0  0  0  0  0  0  0  0  0  0  0  0
   86.1278   46.2817  266.5368 O   0  0  0  0  0  0  0  0  0  0  0  0
   88.2895   45.7139  268.0726 C   0  0  0  0  0  0  0  0  0  0  0  0
   92.7122   52.3451  270.3867 C   0  0  0  0  0  0  0  0  0  0  0  0
   93.6742   53.3006  269.9675 C   0  0  0  0  0  0  0  0  0  0  0  0
   93.6619   54.6467  271.0869 S   0  0  0  0  0  0  0  0  0  0  0  0
   92.4847   53.7751  272.0143 C   0  0  0  0  0  0  0  0  0  0  0  0
   92.0618   52.6441  271.5401 N   0  0  0  0  0  0  0  0  0  0  0  0
   92.0618   54.3270  273.1729 N   0  0  0  0  0  0  0  0  0  0  0  0
   92.3879   46.3500  265.8687 H   0  0  0  0  0  0  0  0  0  0  0  0
   91.0253   50.1098  267.3668 H   0  0  0  0  0  0  0  0  0  0  0  0
   94.4273   49.2439  266.5801 H   0  0  0  0  0  0  0  0  0  0  0  0
   97.3733   48.2821  268.2082 H   0  0  0  0  0  0  0  0  0  0  0  0
   96.8769   46.1468  267.1294 H   0  0  0  0  0  0  0  0  0  0  0  0
   94.8406   51.7329  267.2229 H   0  0  0  0  0  0  0  0  0  0  0  0
   95.2014   53.8155  268.5197 H   0  0  0  0  0  0  0  0  0  0  0  0
   91.7600   50.4657  269.9250 H   0  0  0  0  0  0  0  0  0  0  0  0
   91.3838   47.3909  263.8698 H   0  0  0  0  0  0  0  0  0  0  0  0
   88.1763   45.3032  262.1848 H   0  0  0  0  0  0  0  0  0  0  0  0
   86.8539   45.5415  264.2451 H   0  0  0  0  0  0  0  0  0  0  0  0
   87.7485   45.7855  269.0276 H   0  0  0  0  0  0  0  0  0  0  0  0
   88.2707   44.6728  267.7179 H   0  0  0  0  0  0  0  0  0  0  0  0
   89.3322   46.0332  268.2172 H   0  0  0  0  0  0  0  0  0  0  0  0
   92.5254   55.2016  273.3148 H   0  0  0  0  0  0  0  0  0  0  0  0
   91.0740   54.4766  273.1297 H   0  0  0  0  0  0  0  0  0  0  0  0
  1  4  2  0  0  0  0
  1  6  1  0  0  0  0
  1 11  1  0  0  0  0
  2  3  1  0  0  0  0
  2  5  2  0  0  0  0
  3  4  1  0  0  0  0
  3 15  2  3  0  0  0
  5  6  1  0  0  0  0
  5 10  1  0  0  0  0
  6  7  1  0  0  0  0
  7  8  2  0  0  0  0
  8  9  1  0  0  0  0
  9 10  2  0  0  0  0
 11 12  2  0  0  0  0
 11 14  1  0  0  0  0
 12 13  1  0  0  0  0
 13 27  2  0  0  0  0
 14 26  2  0  0  0  0
 15 16  1  0  0  0  0
 16 17  2  0  0  0  0
 16 21  1  0  0  0  0
 17 18  1  0  0  0  0
 18 19  2  0  0  0  0
 19 20  1  0  0  0  0
 20 21  2  0  0  0  0
 21 22  1  0  0  0  0
 22 23  2  0  0  0  0
 22 24  2  0  0  0  0
 22 25  1  0  0  0  0
 26 27  1  0  0  0  0
 26 30  1  0  0  0  0
 27 28  1  0  0  0  0
 28 29  1  0  0  0  0
 29 30  2  0  0  0  0
 29 31  1  0  0  0  0
  2 32  1  0  0  0  0
  4 33  1  0  0  0  0
  6 34  1  0  0  0  0
  8 35  1  0  0  0  0
  9 36  1  0  0  0  0
 12 37  1  0  0  0  0
 13 38  1  0  0  0  0
 14 39  1  0  0  0  0
 17 40  1  0  0  0  0
 19 41  1  0  0  0  0
 20 42  1  0  0  0  0
 25 43  1  0  0  0  0
 25 44  1  0  0  0  0
 25 45  1  0  0  0  0
 31 46  1  0  0  0  0
 31 47  1  0  0  0  0
M  END
> <ID>
67

> <IC50[uM]>
0.031

$$$$
67
  -OEChem-05192314313D
 Structure written by MMmdl.
 47 51  0     0  0  0  0  0  0999 V2000
   93.1004   49.7216  267.7155 C   0  0  0  0  0  0  0  0  0  0  0  0
   92.5890   47.2745  266.3896 C   0  0  0  0  0  0  0  0  0  0  0  0
   91.5683   48.2049  266.5759 C   0  0  0  0  0  0  0  0  0  0  0  0
   91.8300   49.4026  267.2297 C   0  0  0  0  0  0  0  0  0  0  0  0
   93.8878   47.5400  266.8820 C   0  0  0  0  0  0  0  0  0  0  0  0
   94.1599   48.7802  267.5411 C   0  0  0  0  0  0  0  0  0  0  0  0
   95.4145   49.0346  268.0280 N   0  0  0  0  0  0  0  0  0  0  0  0
   96.3713   48.0905  267.8536 C   0  0  0  0  0  0  0  0  0  0  0  0
   96.0910   46.8809  267.2282 C   0  0  0  0  0  0  0  0  0  0  0  0
   94.8599   46.5971  266.7393 N   0  0  0  0  0  0  0  0  0  0  0  0
   93.2846   50.9778  268.4857 C   0  0  0  0  0  0  0  0  0  0  0  0
   94.2454   51.9199  268.1045 C   0  0  0  0  0  0  0  0  0  0  0  0
   94.4590   53.0941  268.8278 C   0  0  0  0  0  0  0  0  0  0  0  0
   92.5073   51.1876  269.6303 C   0  0  0  0  0  0  0  0  0  0  0  0
   90.2493   47.9429  266.1975 N   0  0  0  0  0  0  0  0  0  0  0  0
   89.6938   47.1846  265.1577 C   0  0  0  0  0  0  0  0  0  0  0  0
   90.3836   46.9926  263.9558 C   0  0  0  0  0  0  0  0  0  0  0  0
   89.8604   46.3316  262.8928 N   0  0  0  0  0  0  0  0  0  0  0  0
   88.6069   45.8318  263.0224 C   0  0  0  0  0  0  0  0  0  0  0  0
   87.8451   45.9660  264.1837 C   0  0  0  0  0  0  0  0  0  0  0  0
   88.3928   46.6627  265.2677 C   0  0  0  0  0  0  0  0  0  0  0  0
   87.4640   46.8258  266.7979 S   0  0  0  0  0  0  0  0  0  0  0  0
   87.6173   48.2190  267.2276 O   0  0  0  0  0  0  0  0  0  0  0  0
   86.1278   46.2817  266.5368 O   0  0  0  0  0  0  0  0  0  0  0  0
   88.2895   45.7139  268.0726 C   0  0  0  0  0  0  0  0  0  0  0  0
   92.7122   52.3451  270.3867 C   0  0  0  0  0  0  0  0  0  0  0  0
   93.6742   53.3006  269.9675 C   0  0  0  0  0  0  0  0  0  0  0  0
   93.6619   54.6467  271.0869 S   0  0  0  0  0  0  0  0  0  0  0  0
   92.4847   53.7751  272.0143 C   0  0  0  0  0  0  0  0  0  0  0  0
   92.0618   52.6441  271.5401 N   0  0  0  0  0  0  0  0  0  0  0  0
   92.0618   54.3270  273.1729 N   0  0  0  0  0  0  0  0  0  0  0  0
   92.3879   46.3500  265.8687 H   0  0  0  0  0  0  0  0  0  0  0  0
   91.0253   50.1098  267.3668 H   0  0  0  0  0  0  0  0  0  0  0  0
   97.1725   48.5647  267.2678 H   0  0  0  0  0  0  0  0  0  0  0  0
   96.7485   47.8416  268.8565 H   0  0  0  0  0  0  0  0  0  0  0  0
   96.8769   46.1468  267.1294 H   0  0  0  0  0  0  0  0  0  0  0  0
   94.8406   51.7329  267.2229 H   0  0  0  0  0  0  0  0  0  0  0  0
   95.2014   53.8155  268.5197 H   0  0  0  0  0  0  0  0  0  0  0  0
   91.7600   50.4657  269.9250 H   0  0  0  0  0  0  0  0  0  0  0  0
   91.3838   47.3909  263.8698 H   0  0  0  0  0  0  0  0  0  0  0  0
   88.1763   45.3032  262.1848 H   0  0  0  0  0  0  0  0  0  0  0  0
   86.8539   45.5415  264.2451 H   0  0  0  0  0  0  0  0  0  0  0  0
   87.7485   45.7855  269.0276 H   0  0  0  0  0  0  0  0  0  0  0  0
   88.2707   44.6728  267.7179 H   0  0  0  0  0  0  0  0  0  0  0  0
   89.3322   46.0332  268.2172 H   0  0  0  0  0  0  0  0  0  0  0  0
   92.5254   55.2016  273.3148 H   0  0  0  0  0  0  0  0  0  0  0  0
   91.0740   54.4766  273.1297 H   0  0  0  0  0  0  0  0  0  0  0  0
  1  4  2  0  0  0  0
  1  6  1  0  0  0  0
  1 11  1  0  0  0  0
  2  3  1  0  0  0  0
  2  5  2  0  0  0  0
  3  4  1  0  0  0  0
  3 15  2  3  0  0  0
  5  6  1  0  0  0  0
  5 10  1  0  0  0  0
  6  7  2  0  0  0  0
  7  8  1  0  0  0  0
  8  9  1  0  0  0  0
  9 10  2  0  0  0  0
 11 12  2  0  0  0  0
 11 14  1  0  0  0  0
 12 13  1  0  0  0  0
 13 27  2  0  0  0  0
 14 26  2  0  0  0  0
 15 16  1  0  0  0  0
 16 17  2  0  0  0  0
 16 21  1  0  0  0  0
 17 18  1  0  0  0  0
 18 19  2  0  0  0  0
 19 20  1  0  0  0  0
 20 21  2  0  0  0  0
 21 22  1  0  0  0  0
 22 23  2  0  0  0  0
 22 24  2  0  0  0  0
 22 25  1  0  0  0  0
 26 27  1  0  0  0  0
 26 30  1  0  0  0  0
 27 28  1  0  0  0  0
 28 29  1  0  0  0  0
 29 30  2  0  0  0  0
 29 31  1  0  0  0  0
  2 32  1  0  0  0  0
  4 33  1  0  0  0  0
  8 34  1  0  0  0  0
  8 35  1  0  0  0  0
  9 36  1  0  0  0  0
 12 37  1  0  0  0  0
 13 38  1  0  0  0  0
 14 39  1  0  0  0  0
 17 40  1  0  0  0  0
 19 41  1  0  0  0  0
 20 42  1  0  0  0  0
 25 43  1  0  0  0  0
 25 44  1  0  0  0  0
 25 45  1  0  0  0  0
 31 46  1  0  0  0  0
 31 47  1  0  0  0  0
M  END
> <ID>
67

> <IC50[uM]>
0.031

$$$$
67
  -OEChem-05192314313D
 Structure written by MMmdl.
 47 51  0     1  0  0  0  0  0999 V2000
   93.1004   49.7216  267.7155 C   0  0  0  0  0  0  0  0  0  0  0  0
   92.5890   47.2745  266.3896 C   0  0  0  0  0  0  0  0  0  0  0  0
   91.5683   48.2049  266.5759 C   0  0  0  0  0  0  0  0  0  0  0  0
   91.8300   49.4026  267.2297 C   0  0  0  0  0  0  0  0  0  0  0  0
   93.8878   47.5400  266.8820 C   0  0  0  0  0  0  0  0  0  0  0  0
   94.1599   48.7802  267.5411 C   0  0  3  0  0  0  0  0  0  0  0  0
   95.4145   49.0346  268.0280 N   0  0  0  0  0  0  0  0  0  0  0  0
   96.3713   48.0905  267.8536 C   0  0  0  0  0  0  0  0  0  0  0  0
   96.0910   46.8809  267.2282 C   0  0  0  0  0  0  0  0  0  0  0  0
   94.8599   46.5971  266.7393 N   0  0  0  0  0  0  0  0  0  0  0  0
   93.2846   50.9778  268.4857 C   0  0  0  0  0  0  0  0  0  0  0  0
   94.2454   51.9199  268.1045 C   0  0  0  0  0  0  0  0  0  0  0  0
   94.4590   53.0941  268.8278 C   0  0  0  0  0  0  0  0  0  0  0  0
   92.5073   51.1876  269.6303 C   0  0  0  0  0  0  0  0  0  0  0  0
   90.2493   47.9429  266.1975 N   0  0  0  0  0  0  0  0  0  0  0  0
   89.6938   47.1846  265.1577 C   0  0  0  0  0  0  0  0  0  0  0  0
   90.3836   46.9926  263.9558 C   0  0  0  0  0  0  0  0  0  0  0  0
   89.8604   46.3316  262.8928 N   0  0  0  0  0  0  0  0  0  0  0  0
   88.6069   45.8318  263.0224 C   0  0  0  0  0  0  0  0  0  0  0  0
   87.8451   45.9660  264.1837 C   0  0  0  0  0  0  0  0  0  0  0  0
   88.3928   46.6627  265.2677 C   0  0  0  0  0  0  0  0  0  0  0  0
   87.4640   46.8258  266.7979 S   0  0  0  0  0  0  0  0  0  0  0  0
   87.6173   48.2190  267.2276 O   0  0  0  0  0  0  0  0  0  0  0  0
   86.1278   46.2817  266.5368 O   0  0  0  0  0  0  0  0  0  0  0  0
   88.2895   45.7139  268.0726 C   0  0  0  0  0  0  0  0  0  0  0  0
   92.7122   52.3451  270.3867 C   0  0  0  0  0  0  0  0  0  0  0  0
   93.6742   53.3006  269.9675 C   0  0  0  0  0  0  0  0  0  0  0  0
   93.6619   54.6467  271.0869 S   0  0  0  0  0  0  0  0  0  0  0  0
   92.4847   53.7751  272.0143 C   0  0  0  0  0  0  0  0  0  0  0  0
   92.0618   52.6441  271.5401 N   0  0  0  0  0  0  0  0  0  0  0  0
   92.0618   54.3270  273.1729 N   0  0  0  0  0  0  0  0  0  0  0  0
   92.3879   46.3500  265.8687 H   0  0  0  0  0  0  0  0  0  0  0  0
   91.0253   50.1098  267.3668 H   0  0  0  0  0  0  0  0  0  0  0  0
   94.4273   49.2439  266.5801 H   0  0  0  0  0  0  0  0  0  0  0  0
   97.3733   48.2821  268.2082 H   0  0  0  0  0  0  0  0  0  0  0  0
   96.8769   46.1468  267.1294 H   0  0  0  0  0  0  0  0  0  0  0  0
   94.8406   51.7329  267.2229 H   0  0  0  0  0  0  0  0  0  0  0  0
   95.2014   53.8155  268.5197 H   0  0  0  0  0  0  0  0  0  0  0  0
   91.7600   50.4657  269.9250 H   0  0  0  0  0  0  0  0  0  0  0  0
   91.3838   47.3909  263.8698 H   0  0  0  0  0  0  0  0  0  0  0  0
   88.1763   45.3032  262.1848 H   0  0  0  0  0  0  0  0  0  0  0  0
   86.8539   45.5415  264.2451 H   0  0  0  0  0  0  0  0  0  0  0  0
   87.7485   45.7855  269.0276 H   0  0  0  0  0  0  0  0  0  0  0  0
   88.2707   44.6728  267.7179 H   0  0  0  0  0  0  0  0  0  0  0  0
   89.3322   46.0332  268.2172 H   0  0  0  0  0  0  0  0  0  0  0  0
   91.3576   52.0742  271.9635 H   0  0  0  0  0  0  0  0  0  0  0  0
   92.5033   55.2062  273.3521 H   0  0  0  0  0  0  0  0  0  0  0  0
  1  4  2  0  0  0  0
  1  6  1  0  0  0  0
  1 11  1  0  0  0  0
  2  3  1  0  0  0  0
  2  5  2  0  0  0  0
  3  4  1  0  0  0  0
  3 15  2  3  0  0  0
  5  6  1  0  0  0  0
  5 10  1  0  0  0  0
  6  7  1  0  0  0  0
  7  8  2  0  0  0  0
  8  9  1  0  0  0  0
  9 10  2  0  0  0  0
 11 12  2  0  0  0  0
 11 14  1  0  0  0  0
 12 13  1  0  0  0  0
 13 27  2  0  0  0  0
 14 26  2  0  0  0  0
 15 16  1  0  0  0  0
 16 17  2  0  0  0  0
 16 21  1  0  0  0  0
 17 18  1  0  0  0  0
 18 19  2  0  0  0  0
 19 20  1  0  0  0  0
 20 21  2  0  0  0  0
 21 22  1  0  0  0  0
 22 23  2  0  0  0  0
 22 24  2  0  0  0  0
 22 25  1  0  0  0  0
 26 27  1  0  0  0  0
 26 30  1  0  0  0  0
 27 28  1  0  0  0  0
 28 29  1  0  0  0  0
 29 30  1  0  0  0  0
 29 31  2  0  0  0  0
  2 32  1  0  0  0  0
  4 33  1  0  0  0  0
  6 34  1  0  0  0  0
  8 35  1  0  0  0  0
  9 36  1  0  0  0  0
 12 37  1  0  0  0  0
 13 38  1  0  0  0  0
 14 39  1  0  0  0  0
 17 40  1  0  0  0  0
 19 41  1  0  0  0  0
 20 42  1  0  0  0  0
 25 43  1  0  0  0  0
 25 44  1  0  0  0  0
 25 45  1  0  0  0  0
 30 46  1  0  0  0  0
 31 47  1  0  0  0  0
M  END
> <ID>
67

> <IC50[uM]>
0.031

$$$$
67
  -OEChem-05192314313D
 Structure written by MMmdl.
 47 51  0     0  0  0  0  0  0999 V2000
   93.1004   49.7216  267.7155 C   0  0  0  0  0  0  0  0  0  0  0  0
   92.5890   47.2745  266.3896 C   0  0  0  0  0  0  0  0  0  0  0  0
   91.5683   48.2049  266.5759 C   0  0  0  0  0  0  0  0  0  0  0  0
   91.8300   49.4026  267.2297 C   0  0  0  0  0  0  0  0  0  0  0  0
   93.8878   47.5400  266.8820 C   0  0  0  0  0  0  0  0  0  0  0  0
   94.1599   48.7802  267.5411 C   0  0  0  0  0  0  0  0  0  0  0  0
   95.4145   49.0346  268.0280 N   0  0  0  0  0  0  0  0  0  0  0  0
   96.3713   48.0905  267.8536 C   0  0  0  0  0  0  0  0  0  0  0  0
   96.0910   46.8809  267.2282 C   0  0  0  0  0  0  0  0  0  0  0  0
   94.8599   46.5971  266.7393 N   0  0  0  0  0  0  0  0  0  0  0  0
   93.2846   50.9778  268.4857 C   0  0  0  0  0  0  0  0  0  0  0  0
   94.2454   51.9199  268.1045 C   0  0  0  0  0  0  0  0  0  0  0  0
   94.4590   53.0941  268.8278 C   0  0  0  0  0  0  0  0  0  0  0  0
   92.5073   51.1876  269.6303 C   0  0  0  0  0  0  0  0  0  0  0  0
   90.2493   47.9429  266.1975 N   0  0  0  0  0  0  0  0  0  0  0  0
   89.6938   47.1846  265.1577 C   0  0  0  0  0  0  0  0  0  0  0  0
   90.3836   46.9926  263.9558 C   0  0  0  0  0  0  0  0  0  0  0  0
   89.8604   46.3316  262.8928 N   0  0  0  0  0  0  0  0  0  0  0  0
   88.6069   45.8318  263.0224 C   0  0  0  0  0  0  0  0  0  0  0  0
   87.8451   45.9660  264.1837 C   0  0  0  0  0  0  0  0  0  0  0  0
   88.3928   46.6627  265.2677 C   0  0  0  0  0  0  0  0  0  0  0  0
   87.4640   46.8258  266.7979 S   0  0  0  0  0  0  0  0  0  0  0  0
   87.6173   48.2190  267.2276 O   0  0  0  0  0  0  0  0  0  0  0  0
   86.1278   46.2817  266.5368 O   0  0  0  0  0  0  0  0  0  0  0  0
   88.2895   45.7139  268.0726 C   0  0  0  0  0  0  0  0  0  0  0  0
   92.7122   52.3451  270.3867 C   0  0  0  0  0  0  0  0  0  0  0  0
   93.6742   53.3006  269.9675 C   0  0  0  0  0  0  0  0  0  0  0  0
   93.6619   54.6467  271.0869 S   0  0  0  0  0  0  0  0  0  0  0  0
   92.4847   53.7751  272.0143 C   0  0  0  0  0  0  0  0  0  0  0  0
   92.0618   52.6441  271.5401 N   0  0  0  0  0  0  0  0  0  0  0  0
   92.0618   54.3270  273.1729 N   0  0  0  0  0  0  0  0  0  0  0  0
   92.3879   46.3500  265.8687 H   0  0  0  0  0  0  0  0  0  0  0  0
   91.0253   50.1098  267.3668 H   0  0  0  0  0  0  0  0  0  0  0  0
   97.1725   48.5647  267.2678 H   0  0  0  0  0  0  0  0  0  0  0  0
   96.7485   47.8416  268.8565 H   0  0  0  0  0  0  0  0  0  0  0  0
   96.8769   46.1468  267.1294 H   0  0  0  0  0  0  0  0  0  0  0  0
   94.8406   51.7329  267.2229 H   0  0  0  0  0  0  0  0  0  0  0  0
   95.2014   53.8155  268.5197 H   0  0  0  0  0  0  0  0  0  0  0  0
   91.7600   50.4657  269.9250 H   0  0  0  0  0  0  0  0  0  0  0  0
   91.3838   47.3909  263.8698 H   0  0  0  0  0  0  0  0  0  0  0  0
   88.1763   45.3032  262.1848 H   0  0  0  0  0  0  0  0  0  0  0  0
   86.8539   45.5415  264.2451 H   0  0  0  0  0  0  0  0  0  0  0  0
   87.7485   45.7855  269.0276 H   0  0  0  0  0  0  0  0  0  0  0  0
   88.2707   44.6728  267.7179 H   0  0  0  0  0  0  0  0  0  0  0  0
   89.3322   46.0332  268.2172 H   0  0  0  0  0  0  0  0  0  0  0  0
   91.3576   52.0742  271.9635 H   0  0  0  0  0  0  0  0  0  0  0  0
   92.5033   55.2062  273.3521 H   0  0  0  0  0  0  0  0  0  0  0  0
  1  4  2  0  0  0  0
  1  6  1  0  0  0  0
  1 11  1  0  0  0  0
  2  3  1  0  0  0  0
  2  5  2  0  0  0  0
  3  4  1  0  0  0  0
  3 15  2  3  0  0  0
  5  6  1  0  0  0  0
  5 10  1  0  0  0  0
  6  7  2  0  0  0  0
  7  8  1  0  0  0  0
  8  9  1  0  0  0  0
  9 10  2  0  0  0  0
 11 12  2  0  0  0  0
 11 14  1  0  0  0  0
 12 13  1  0  0  0  0
 13 27  2  0  0  0  0
 14 26  2  0  0  0  0
 15 16  1  0  0  0  0
 16 17  2  0  0  0  0
 16 21  1  0  0  0  0
 17 18  1  0  0  0  0
 18 19  2  0  0  0  0
 19 20  1  0  0  0  0
 20 21  2  0  0  0  0
 21 22  1  0  0  0  0
 22 23  2  0  0  0  0
 22 24  2  0  0  0  0
 22 25  1  0  0  0  0
 26 27  1  0  0  0  0
 26 30  1  0  0  0  0
 27 28  1  0  0  0  0
 28 29  1  0  0  0  0
 29 30  1  0  0  0  0
 29 31  2  0  0  0  0
  2 32  1  0  0  0  0
  4 33  1  0  0  0  0
  8 34  1  0  0  0  0
  8 35  1  0  0  0  0
  9 36  1  0  0  0  0
 12 37  1  0  0  0  0
 13 38  1  0  0  0  0
 14 39  1  0  0  0  0
 17 40  1  0  0  0  0
 19 41  1  0  0  0  0
 20 42  1  0  0  0  0
 25 43  1  0  0  0  0
 25 44  1  0  0  0  0
 25 45  1  0  0  0  0
 30 46  1  0  0  0  0
 31 47  1  0  0  0  0
M  END
> <ID>
67

> <IC50[uM]>
0.031

$$$$
67
  -OEChem-05192314313D
 Structure written by MMmdl.
 47 51  0     1  0  0  0  0  0999 V2000
   93.1004   49.7216  267.7155 C   0  0  0  0  0  0  0  0  0  0  0  0
   92.5890   47.2745  266.3896 C   0  0  0  0  0  0  0  0  0  0  0  0
   91.5683   48.2049  266.5759 C   0  0  0  0  0  0  0  0  0  0  0  0
   91.8300   49.4026  267.2297 C   0  0  0  0  0  0  0  0  0  0  0  0
   93.8878   47.5400  266.8820 C   0  0  0  0  0  0  0  0  0  0  0  0
   94.1599   48.7802  267.5411 C   0  0  0  0  0  0  0  0  0  0  0  0
   95.4145   49.0346  268.0280 N   0  0  0  0  0  0  0  0  0  0  0  0
   96.3713   48.0905  267.8536 C   0  0  0  0  0  0  0  0  0  0  0  0
   96.0910   46.8809  267.2282 C   0  0  0  0  0  0  0  0  0  0  0  0
   94.8599   46.5971  266.7393 N   0  0  0  0  0  0  0  0  0  0  0  0
   93.2846   50.9778  268.4857 C   0  0  0  0  0  0  0  0  0  0  0  0
   94.2454   51.9199  268.1045 C   0  0  0  0  0  0  0  0  0  0  0  0
   94.4590   53.0941  268.8278 C   0  0  0  0  0  0  0  0  0  0  0  0
   92.5073   51.1876  269.6303 C   0  0  0  0  0  0  0  0  0  0  0  0
   90.2493   47.9429  266.1975 N   0  0  0  0  0  0  0  0  0  0  0  0
   89.6938   47.1846  265.1577 C   0  0  0  0  0  0  0  0  0  0  0  0
   90.3836   46.9926  263.9558 C   0  0  0  0  0  0  0  0  0  0  0  0
   89.8604   46.3316  262.8928 N   0  0  0  0  0  0  0  0  0  0  0  0
   88.6069   45.8318  263.0224 C   0  0  0  0  0  0  0  0  0  0  0  0
   87.8451   45.9660  264.1837 C   0  0  0  0  0  0  0  0  0  0  0  0
   88.3928   46.6627  265.2677 C   0  0  0  0  0  0  0  0  0  0  0  0
   87.4640   46.8258  266.7979 S   0  0  0  0  0  0  0  0  0  0  0  0
   87.6173   48.2190  267.2276 O   0  0  0  0  0  0  0  0  0  0  0  0
   86.1278   46.2817  266.5368 O   0  0  0  0  0  0  0  0  0  0  0  0
   88.2895   45.7139  268.0726 C   0  0  0  0  0  0  0  0  0  0  0  0
   92.7122   52.3451  270.3867 C   0  0  0  0  0  0  0  0  0  0  0  0
   93.6742   53.3006  269.9675 C   0  0  3  0  0  0  0  0  0  0  0  0
   93.6619   54.6467  271.0869 S   0  0  0  0  0  0  0  0  0  0  0  0
   92.4847   53.7751  272.0143 C   0  0  0  0  0  0  0  0  0  0  0  0
   92.0618   52.6441  271.5401 N   0  0  0  0  0  0  0  0  0  0  0  0
   92.0618   54.3270  273.1729 N   0  0  0  0  0  0  0  0  0  0  0  0
   92.2556   46.3388  266.8622 H   0  0  0  0  0  0  0  0  0  0  0  0
   92.6859   47.1229  265.3044 H   0  0  0  0  0  0  0  0  0  0  0  0
   91.0253   50.1098  267.3668 H   0  0  0  0  0  0  0  0  0  0  0  0
   97.3733   48.2821  268.2082 H   0  0  0  0  0  0  0  0  0  0  0  0
   96.8769   46.1468  267.1294 H   0  0  0  0  0  0  0  0  0  0  0  0
   94.8406   51.7329  267.2229 H   0  0  0  0  0  0  0  0  0  0  0  0
   95.2014   53.8155  268.5197 H   0  0  0  0  0  0  0  0  0  0  0  0
   91.7600   50.4657  269.9250 H   0  0  0  0  0  0  0  0  0  0  0  0
   91.3838   47.3909  263.8698 H   0  0  0  0  0  0  0  0  0  0  0  0
   88.1763   45.3032  262.1848 H   0  0  0  0  0  0  0  0  0  0  0  0
   86.8539   45.5415  264.2451 H   0  0  0  0  0  0  0  0  0  0  0  0
   87.7485   45.7855  269.0276 H   0  0  0  0  0  0  0  0  0  0  0  0
   88.2707   44.6728  267.7179 H   0  0  0  0  0  0  0  0  0  0  0  0
   89.3322   46.0332  268.2172 H   0  0  0  0  0  0  0  0  0  0  0  0
   92.9114   53.8021  269.3537 H   0  0  0  0  0  0  0  0  0  0  0  0
   92.5033   55.2062  273.3521 H   0  0  0  0  0  0  0  0  0  0  0  0
  1  4  2  0  0  0  0
  1  6  1  0  0  0  0
  1 11  1  0  0  0  0
  2  3  1  0  0  0  0
  2  5  1  0  0  0  0
  3  4  1  0  0  0  0
  3 15  2  3  0  0  0
  5  6  2  0  0  0  0
  5 10  1  0  0  0  0
  6  7  1  0  0  0  0
  7  8  2  0  0  0  0
  8  9  1  0  0  0  0
  9 10  2  0  0  0  0
 11 12  1  0  0  0  0
 11 14  2  0  0  0  0
 12 13  2  0  0  0  0
 13 27  1  0  0  0  0
 14 26  1  0  0  0  0
 15 16  1  0  0  0  0
 16 17  2  0  0  0  0
 16 21  1  0  0  0  0
 17 18  1  0  0  0  0
 18 19  2  0  0  0  0
 19 20  1  0  0  0  0
 20 21  2  0  0  0  0
 21 22  1  0  0  0  0
 22 23  2  0  0  0  0
 22 24  2  0  0  0  0
 22 25  1  0  0  0  0
 26 27  1  0  0  0  0
 26 30  2  0  0  0  0
 27 28  1  0  0  0  0
 28 29  1  0  0  0  0
 29 30  1  0  0  0  0
 29 31  2  0  0  0  0
  2 32  1  0  0  0  0
  2 33  1  0  0  0  0
  4 34  1  0  0  0  0
  8 35  1  0  0  0  0
  9 36  1  0  0  0  0
 12 37  1  0  0  0  0
 13 38  1  0  0  0  0
 14 39  1  0  0  0  0
 17 40  1  0  0  0  0
 19 41  1  0  0  0  0
 20 42  1  0  0  0  0
 25 43  1  0  0  0  0
 25 44  1  0  0  0  0
 25 45  1  0  0  0  0
 27 46  1  0  0  0  0
 31 47  1  0  0  0  0
M  END
> <ID>
67

> <IC50[uM]>
0.031

$$$$
67
  -OEChem-05192314313D
 Structure written by MMmdl.
 47 51  0     0  0  0  0  0  0999 V2000
   93.1004   49.7216  267.7155 C   0  0  0  0  0  0  0  0  0  0  0  0
   92.5890   47.2745  266.3896 C   0  0  0  0  0  0  0  0  0  0  0  0
   91.5683   48.2049  266.5759 C   0  0  0  0  0  0  0  0  0  0  0  0
   91.8300   49.4026  267.2297 C   0  0  0  0  0  0  0  0  0  0  0  0
   93.8878   47.5400  266.8820 C   0  0  0  0  0  0  0  0  0  0  0  0
   94.1599   48.7802  267.5411 C   0  0  0  0  0  0  0  0  0  0  0  0
   95.4145   49.0346  268.0280 N   0  0  0  0  0  0  0  0  0  0  0  0
   96.3713   48.0905  267.8536 C   0  0  0  0  0  0  0  0  0  0  0  0
   96.0910   46.8809  267.2282 C   0  0  0  0  0  0  0  0  0  0  0  0
   94.8599   46.5971  266.7393 N   0  0  0  0  0  0  0  0  0  0  0  0
   93.2846   50.9778  268.4857 C   0  0  0  0  0  0  0  0  0  0  0  0
   94.2454   51.9199  268.1045 C   0  0  0  0  0  0  0  0  0  0  0  0
   94.4590   53.0941  268.8278 C   0  0  0  0  0  0  0  0  0  0  0  0
   92.5073   51.1876  269.6303 C   0  0  0  0  0  0  0  0  0  0  0  0
   90.2493   47.9429  266.1975 N   0  0  0  0  0  0  0  0  0  0  0  0
   89.6938   47.1846  265.1577 C   0  0  0  0  0  0  0  0  0  0  0  0
   90.3836   46.9926  263.9558 C   0  0  0  0  0  0  0  0  0  0  0  0
   89.8604   46.3316  262.8928 N   0  0  0  0  0  0  0  0  0  0  0  0
   88.6069   45.8318  263.0224 C   0  0  0  0  0  0  0  0  0  0  0  0
   87.8451   45.9660  264.1837 C   0  0  0  0  0  0  0  0  0  0  0  0
   88.3928   46.6627  265.2677 C   0  0  0  0  0  0  0  0  0  0  0  0
   87.4640   46.8258  266.7979 S   0  0  0  0  0  0  0  0  0  0  0  0
   87.6173   48.2190  267.2276 O   0  0  0  0  0  0  0  0  0  0  0  0
   86.1278   46.2817  266.5368 O   0  0  0  0  0  0  0  0  0  0  0  0
   88.2895   45.7139  268.0726 C   0  0  0  0  0  0  0  0  0  0  0  0
   92.7122   52.3451  270.3867 C   0  0  0  0  0  0  0  0  0  0  0  0
   93.6742   53.3006  269.9675 C   0  0  0  0  0  0  0  0  0  0  0  0
   93.6619   54.6467  271.0869 S   0  0  0  0  0  0  0  0  0  0  0  0
   92.4847   53.7751  272.0143 C   0  0  0  0  0  0  0  0  0  0  0  0
   92.0618   52.6441  271.5401 N   0  0  0  0  0  0  0  0  0  0  0  0
   92.0618   54.3270  273.1729 N   0  0  0  0  0  0  0  0  0  0  0  0
   92.2556   46.3388  266.8622 H   0  0  0  0  0  0  0  0  0  0  0  0
   92.6859   47.1229  265.3044 H   0  0  0  0  0  0  0  0  0  0  0  0
   91.0253   50.1098  267.3668 H   0  0  0  0  0  0  0  0  0  0  0  0
   97.3733   48.2821  268.2082 H   0  0  0  0  0  0  0  0  0  0  0  0
   96.8769   46.1468  267.1294 H   0  0  0  0  0  0  0  0  0  0  0  0
   95.2084   51.3884  268.0894 H   0  0  0  0  0  0  0  0  0  0  0  0
   93.9824   52.2314  267.0828 H   0  0  0  0  0  0  0  0  0  0  0  0
   95.2014   53.8155  268.5197 H   0  0  0  0  0  0  0  0  0  0  0  0
   91.7600   50.4657  269.9250 H   0  0  0  0  0  0  0  0  0  0  0  0
   91.3838   47.3909  263.8698 H   0  0  0  0  0  0  0  0  0  0  0  0
   88.1763   45.3032  262.1848 H   0  0  0  0  0  0  0  0  0  0  0  0
   86.8539   45.5415  264.2451 H   0  0  0  0  0  0  0  0  0  0  0  0
   87.7485   45.7855  269.0276 H   0  0  0  0  0  0  0  0  0  0  0  0
   88.2707   44.6728  267.7179 H   0  0  0  0  0  0  0  0  0  0  0  0
   89.3322   46.0332  268.2172 H   0  0  0  0  0  0  0  0  0  0  0  0
   92.5033   55.2062  273.3521 H   0  0  0  0  0  0  0  0  0  0  0  0
  1  4  2  0  0  0  0
  1  6  1  0  0  0  0
  1 11  1  0  0  0  0
  2  3  1  0  0  0  0
  2  5  1  0  0  0  0
  3  4  1  0  0  0  0
  3 15  2  3  0  0  0
  5  6  2  0  0  0  0
  5 10  1  0  0  0  0
  6  7  1  0  0  0  0
  7  8  2  0  0  0  0
  8  9  1  0  0  0  0
  9 10  2  0  0  0  0
 11 12  1  0  0  0  0
 11 14  2  0  0  0  0
 12 13  1  0  0  0  0
 13 27  2  0  0  0  0
 14 26  1  0  0  0  0
 15 16  1  0  0  0  0
 16 17  2  0  0  0  0
 16 21  1  0  0  0  0
 17 18  1  0  0  0  0
 18 19  2  0  0  0  0
 19 20  1  0  0  0  0
 20 21  2  0  0  0  0
 21 22  1  0  0  0  0
 22 23  2  0  0  0  0
 22 24  2  0  0  0  0
 22 25  1  0  0  0  0
 26 27  1  0  0  0  0
 26 30  2  0  0  0  0
 27 28  1  0  0  0  0
 28 29  1  0  0  0  0
 29 30  1  0  0  0  0
 29 31  2  0  0  0  0
  2 32  1  0  0  0  0
  2 33  1  0  0  0  0
  4 34  1  0  0  0  0
  8 35  1  0  0  0  0
  9 36  1  0  0  0  0
 12 37  1  0  0  0  0
 12 38  1  0  0  0  0
 13 39  1  0  0  0  0
 14 40  1  0  0  0  0
 17 41  1  0  0  0  0
 19 42  1  0  0  0  0
 20 43  1  0  0  0  0
 25 44  1  0  0  0  0
 25 45  1  0  0  0  0
 25 46  1  0  0  0  0
 31 47  1  0  0  0  0
M  END
> <ID>
67

> <IC50[uM]>
0.031

$$$$
67
  -OEChem-05192314313D
 Structure written by MMmdl.
 47 51  0     0  0  0  0  0  0999 V2000
   93.1004   49.7216  267.7155 C   0  0  0  0  0  0  0  0  0  0  0  0
   92.5890   47.2745  266.3896 C   0  0  0  0  0  0  0  0  0  0  0  0
   91.5683   48.2049  266.5759 C   0  0  0  0  0  0  0  0  0  0  0  0
   91.8300   49.4026  267.2297 C   0  0  0  0  0  0  0  0  0  0  0  0
   93.8878   47.5400  266.8820 C   0  0  0  0  0  0  0  0  0  0  0  0
   94.1599   48.7802  267.5411 C   0  0  0  0  0  0  0  0  0  0  0  0
   95.4145   49.0346  268.0280 N   0  0  0  0  0  0  0  0  0  0  0  0
   96.3713   48.0905  267.8536 C   0  0  0  0  0  0  0  0  0  0  0  0
   96.0910   46.8809  267.2282 C   0  0  0  0  0  0  0  0  0  0  0  0
   94.8599   46.5971  266.7393 N   0  0  0  0  0  0  0  0  0  0  0  0
   93.2846   50.9778  268.4857 C   0  0  0  0  0  0  0  0  0  0  0  0
   94.2454   51.9199  268.1045 C   0  0  0  0  0  0  0  0  0  0  0  0
   94.4590   53.0941  268.8278 C   0  0  0  0  0  0  0  0  0  0  0  0
   92.5073   51.1876  269.6303 C   0  0  0  0  0  0  0  0  0  0  0  0
   90.2493   47.9429  266.1975 N   0  0  0  0  0  0  0  0  0  0  0  0
   89.6938   47.1846  265.1577 C   0  0  0  0  0  0  0  0  0  0  0  0
   90.3836   46.9926  263.9558 C   0  0  0  0  0  0  0  0  0  0  0  0
   89.8604   46.3316  262.8928 N   0  0  0  0  0  0  0  0  0  0  0  0
   88.6069   45.8318  263.0224 C   0  0  0  0  0  0  0  0  0  0  0  0
   87.8451   45.9660  264.1837 C   0  0  0  0  0  0  0  0  0  0  0  0
   88.3928   46.6627  265.2677 C   0  0  0  0  0  0  0  0  0  0  0  0
   87.4640   46.8258  266.7979 S   0  0  0  0  0  0  0  0  0  0  0  0
   87.6173   48.2190  267.2276 O   0  0  0  0  0  0  0  0  0  0  0  0
   86.1278   46.2817  266.5368 O   0  0  0  0  0  0  0  0  0  0  0  0
   88.2895   45.7139  268.0726 C   0  0  0  0  0  0  0  0  0  0  0  0
   92.7122   52.3451  270.3867 C   0  0  0  0  0  0  0  0  0  0  0  0
   93.6742   53.3006  269.9675 C   0  0  0  0  0  0  0  0  0  0  0  0
   93.6619   54.6467  271.0869 S   0  0  0  0  0  0  0  0  0  0  0  0
   92.4847   53.7751  272.0143 C   0  0  0  0  0  0  0  0  0  0  0  0
   92.0618   52.6441  271.5401 N   0  0  0  0  0  0  0  0  0  0  0  0
   92.0618   54.3270  273.1729 N   0  0  0  0  0  0  0  0  0  0  0  0
   92.2556   46.3388  266.8622 H   0  0  0  0  0  0  0  0  0  0  0  0
   92.6859   47.1229  265.3044 H   0  0  0  0  0  0  0  0  0  0  0  0
   91.0253   50.1098  267.3668 H   0  0  0  0  0  0  0  0  0  0  0  0
   97.3733   48.2821  268.2082 H   0  0  0  0  0  0  0  0  0  0  0  0
   96.8769   46.1468  267.1294 H   0  0  0  0  0  0  0  0  0  0  0  0
   94.8406   51.7329  267.2229 H   0  0  0  0  0  0  0  0  0  0  0  0
   95.2014   53.8155  268.5197 H   0  0  0  0  0  0  0  0  0  0  0  0
   91.4554   51.1950  269.3085 H   0  0  0  0  0  0  0  0  0  0  0  0
   92.6803   50.3312  270.2986 H   0  0  0  0  0  0  0  0  0  0  0  0
   91.3838   47.3909  263.8698 H   0  0  0  0  0  0  0  0  0  0  0  0
   88.1763   45.3032  262.1848 H   0  0  0  0  0  0  0  0  0  0  0  0
   86.8539   45.5415  264.2451 H   0  0  0  0  0  0  0  0  0  0  0  0
   87.7485   45.7855  269.0276 H   0  0  0  0  0  0  0  0  0  0  0  0
   88.2707   44.6728  267.7179 H   0  0  0  0  0  0  0  0  0  0  0  0
   89.3322   46.0332  268.2172 H   0  0  0  0  0  0  0  0  0  0  0  0
   92.5033   55.2062  273.3521 H   0  0  0  0  0  0  0  0  0  0  0  0
  1  4  2  0  0  0  0
  1  6  1  0  0  0  0
  1 11  1  0  0  0  0
  2  3  1  0  0  0  0
  2  5  1  0  0  0  0
  3  4  1  0  0  0  0
  3 15  2  3  0  0  0
  5  6  2  0  0  0  0
  5 10  1  0  0  0  0
  6  7  1  0  0  0  0
  7  8  2  0  0  0  0
  8  9  1  0  0  0  0
  9 10  2  0  0  0  0
 11 12  2  0  0  0  0
 11 14  1  0  0  0  0
 12 13  1  0  0  0  0
 13 27  2  0  0  0  0
 14 26  1  0  0  0  0
 15 16  1  0  0  0  0
 16 17  2  0  0  0  0
 16 21  1  0  0  0  0
 17 18  1  0  0  0  0
 18 19  2  0  0  0  0
 19 20  1  0  0  0  0
 20 21  2  0  0  0  0
 21 22  1  0  0  0  0
 22 23  2  0  0  0  0
 22 24  2  0  0  0  0
 22 25  1  0  0  0  0
 26 27  1  0  0  0  0
 26 30  2  0  0  0  0
 27 28  1  0  0  0  0
 28 29  1  0  0  0  0
 29 30  1  0  0  0  0
 29 31  2  0  0  0  0
  2 32  1  0  0  0  0
  2 33  1  0  0  0  0
  4 34  1  0  0  0  0
  8 35  1  0  0  0  0
  9 36  1  0  0  0  0
 12 37  1  0  0  0  0
 13 38  1  0  0  0  0
 14 39  1  0  0  0  0
 14 40  1  0  0  0  0
 17 41  1  0  0  0  0
 19 42  1  0  0  0  0
 20 43  1  0  0  0  0
 25 44  1  0  0  0  0
 25 45  1  0  0  0  0
 25 46  1  0  0  0  0
 31 47  1  0  0  0  0
M  END
> <ID>
67

> <IC50[uM]>
0.031

$$$$
67
  -OEChem-05192314313D
 Structure written by MMmdl.
 47 51  0     1  0  0  0  0  0999 V2000
   93.1004   49.7216  267.7155 C   0  0  0  0  0  0  0  0  0  0  0  0
   92.5890   47.2745  266.3896 C   0  0  0  0  0  0  0  0  0  0  0  0
   91.5683   48.2049  266.5759 C   0  0  0  0  0  0  0  0  0  0  0  0
   91.8300   49.4026  267.2297 C   0  0  0  0  0  0  0  0  0  0  0  0
   93.8878   47.5400  266.8820 C   0  0  0  0  0  0  0  0  0  0  0  0
   94.1599   48.7802  267.5411 C   0  0  0  0  0  0  0  0  0  0  0  0
   95.4145   49.0346  268.0280 N   0  0  0  0  0  0  0  0  0  0  0  0
   96.3713   48.0905  267.8536 C   0  0  0  0  0  0  0  0  0  0  0  0
   96.0910   46.8809  267.2282 C   0  0  0  0  0  0  0  0  0  0  0  0
   94.8599   46.5971  266.7393 N   0  0  0  0  0  0  0  0  0  0  0  0
   93.2846   50.9778  268.4857 C   0  0  0  0  0  0  0  0  0  0  0  0
   94.2454   51.9199  268.1045 C   0  0  0  0  0  0  0  0  0  0  0  0
   94.4590   53.0941  268.8278 C   0  0  0  0  0  0  0  0  0  0  0  0
   92.5073   51.1876  269.6303 C   0  0  0  0  0  0  0  0  0  0  0  0
   90.2493   47.9429  266.1975 N   0  0  0  0  0  0  0  0  0  0  0  0
   89.6938   47.1846  265.1577 C   0  0  0  0  0  0  0  0  0  0  0  0
   90.3836   46.9926  263.9558 C   0  0  0  0  0  0  0  0  0  0  0  0
   89.8604   46.3316  262.8928 N   0  0  0  0  0  0  0  0  0  0  0  0
   88.6069   45.8318  263.0224 C   0  0  0  0  0  0  0  0  0  0  0  0
   87.8451   45.9660  264.1837 C   0  0  0  0  0  0  0  0  0  0  0  0
   88.3928   46.6627  265.2677 C   0  0  0  0  0  0  0  0  0  0  0  0
   87.4640   46.8258  266.7979 S   0  0  0  0  0  0  0  0  0  0  0  0
   87.6173   48.2190  267.2276 O   0  0  0  0  0  0  0  0  0  0  0  0
   86.1278   46.2817  266.5368 O   0  0  0  0  0  0  0  0  0  0  0  0
   88.2895   45.7139  268.0726 C   0  0  0  0  0  0  0  0  0  0  0  0
   92.7122   52.3451  270.3867 C   0  0  0  0  0  0  0  0  0  0  0  0
   93.6742   53.3006  269.9675 C   0  0  3  0  0  0  0  0  0  0  0  0
   93.6619   54.6467  271.0869 S   0  0  0  0  0  0  0  0  0  0  0  0
   92.4847   53.7751  272.0143 C   0  0  0  0  0  0  0  0  0  0  0  0
   92.0618   52.6441  271.5401 N   0  0  0  0  0  0  0  0  0  0  0  0
   92.0618   54.3270  273.1729 N   0  0  0  0  0  0  0  0  0  0  0  0
   92.3879   46.3500  265.8687 H   0  0  0  0  0  0  0  0  0  0  0  0
   91.1529   49.4341  268.0960 H   0  0  0  0  0  0  0  0  0  0  0  0
   91.5608   50.2028  266.5246 H   0  0  0  0  0  0  0  0  0  0  0  0
   97.3733   48.2821  268.2082 H   0  0  0  0  0  0  0  0  0  0  0  0
   96.8769   46.1468  267.1294 H   0  0  0  0  0  0  0  0  0  0  0  0
   94.8406   51.7329  267.2229 H   0  0  0  0  0  0  0  0  0  0  0  0
   95.2014   53.8155  268.5197 H   0  0  0  0  0  0  0  0  0  0  0  0
   91.7600   50.4657  269.9250 H   0  0  0  0  0  0  0  0  0  0  0  0
   91.3838   47.3909  263.8698 H   0  0  0  0  0  0  0  0  0  0  0  0
   88.1763   45.3032  262.1848 H   0  0  0  0  0  0  0  0  0  0  0  0
   86.8539   45.5415  264.2451 H   0  0  0  0  0  0  0  0  0  0  0  0
   87.7485   45.7855  269.0276 H   0  0  0  0  0  0  0  0  0  0  0  0
   88.2707   44.6728  267.7179 H   0  0  0  0  0  0  0  0  0  0  0  0
   89.3322   46.0332  268.2172 H   0  0  0  0  0  0  0  0  0  0  0  0
   92.9114   53.8021  269.3537 H   0  0  0  0  0  0  0  0  0  0  0  0
   92.5033   55.2062  273.3521 H   0  0  0  0  0  0  0  0  0  0  0  0
  1  4  1  0  0  0  0
  1  6  2  0  0  0  0
  1 11  1  0  0  0  0
  2  3  1  0  0  0  0
  2  5  2  0  0  0  0
  3  4  1  0  0  0  0
  3 15  2  3  0  0  0
  5  6  1  0  0  0  0
  5 10  1  0  0  0  0
  6  7  1  0  0  0  0
  7  8  2  0  0  0  0
  8  9  1  0  0  0  0
  9 10  2  0  0  0  0
 11 12  1  0  0  0  0
 11 14  2  0  0  0  0
 12 13  2  0  0  0  0
 13 27  1  0  0  0  0
 14 26  1  0  0  0  0
 15 16  1  0  0  0  0
 16 17  2  0  0  0  0
 16 21  1  0  0  0  0
 17 18  1  0  0  0  0
 18 19  2  0  0  0  0
 19 20  1  0  0  0  0
 20 21  2  0  0  0  0
 21 22  1  0  0  0  0
 22 23  2  0  0  0  0
 22 24  2  0  0  0  0
 22 25  1  0  0  0  0
 26 27  1  0  0  0  0
 26 30  2  0  0  0  0
 27 28  1  0  0  0  0
 28 29  1  0  0  0  0
 29 30  1  0  0  0  0
 29 31  2  0  0  0  0
  2 32  1  0  0  0  0
  4 33  1  0  0  0  0
  4 34  1  0  0  0  0
  8 35  1  0  0  0  0
  9 36  1  0  0  0  0
 12 37  1  0  0  0  0
 13 38  1  0  0  0  0
 14 39  1  0  0  0  0
 17 40  1  0  0  0  0
 19 41  1  0  0  0  0
 20 42  1  0  0  0  0
 25 43  1  0  0  0  0
 25 44  1  0  0  0  0
 25 45  1  0  0  0  0
 27 46  1  0  0  0  0
 31 47  1  0  0  0  0
M  END
> <ID>
67

> <IC50[uM]>
0.031

$$$$
67
  -OEChem-05192314313D
 Structure written by MMmdl.
 47 51  0     0  0  0  0  0  0999 V2000
   93.1004   49.7216  267.7155 C   0  0  0  0  0  0  0  0  0  0  0  0
   92.5890   47.2745  266.3896 C   0  0  0  0  0  0  0  0  0  0  0  0
   91.5683   48.2049  266.5759 C   0  0  0  0  0  0  0  0  0  0  0  0
   91.8300   49.4026  267.2297 C   0  0  0  0  0  0  0  0  0  0  0  0
   93.8878   47.5400  266.8820 C   0  0  0  0  0  0  0  0  0  0  0  0
   94.1599   48.7802  267.5411 C   0  0  0  0  0  0  0  0  0  0  0  0
   95.4145   49.0346  268.0280 N   0  0  0  0  0  0  0  0  0  0  0  0
   96.3713   48.0905  267.8536 C   0  0  0  0  0  0  0  0  0  0  0  0
   96.0910   46.8809  267.2282 C   0  0  0  0  0  0  0  0  0  0  0  0
   94.8599   46.5971  266.7393 N   0  0  0  0  0  0  0  0  0  0  0  0
   93.2846   50.9778  268.4857 C   0  0  0  0  0  0  0  0  0  0  0  0
   94.2454   51.9199  268.1045 C   0  0  0  0  0  0  0  0  0  0  0  0
   94.4590   53.0941  268.8278 C   0  0  0  0  0  0  0  0  0  0  0  0
   92.5073   51.1876  269.6303 C   0  0  0  0  0  0  0  0  0  0  0  0
   90.2493   47.9429  266.1975 N   0  0  0  0  0  0  0  0  0  0  0  0
   89.6938   47.1846  265.1577 C   0  0  0  0  0  0  0  0  0  0  0  0
   90.3836   46.9926  263.9558 C   0  0  0  0  0  0  0  0  0  0  0  0
   89.8604   46.3316  262.8928 N   0  0  0  0  0  0  0  0  0  0  0  0
   88.6069   45.8318  263.0224 C   0  0  0  0  0  0  0  0  0  0  0  0
   87.8451   45.9660  264.1837 C   0  0  0  0  0  0  0  0  0  0  0  0
   88.3928   46.6627  265.2677 C   0  0  0  0  0  0  0  0  0  0  0  0
   87.4640   46.8258  266.7979 S   0  0  0  0  0  0  0  0  0  0  0  0
   87.6173   48.2190  267.2276 O   0  0  0  0  0  0  0  0  0  0  0  0
   86.1278   46.2817  266.5368 O   0  0  0  0  0  0  0  0  0  0  0  0
   88.2895   45.7139  268.0726 C   0  0  0  0  0  0  0  0  0  0  0  0
   92.7122   52.3451  270.3867 C   0  0  0  0  0  0  0  0  0  0  0  0
   93.6742   53.3006  269.9675 C   0  0  0  0  0  0  0  0  0  0  0  0
   93.6619   54.6467  271.0869 S   0  0  0  0  0  0  0  0  0  0  0  0
   92.4847   53.7751  272.0143 C   0  0  0  0  0  0  0  0  0  0  0  0
   92.0618   52.6441  271.5401 N   0  0  0  0  0  0  0  0  0  0  0  0
   92.0618   54.3270  273.1729 N   0  0  0  0  0  0  0  0  0  0  0  0
   92.3879   46.3500  265.8687 H   0  0  0  0  0  0  0  0  0  0  0  0
   91.1529   49.4341  268.0960 H   0  0  0  0  0  0  0  0  0  0  0  0
   91.5608   50.2028  266.5246 H   0  0  0  0  0  0  0  0  0  0  0  0
   97.3733   48.2821  268.2082 H   0  0  0  0  0  0  0  0  0  0  0  0
   96.8769   46.1468  267.1294 H   0  0  0  0  0  0  0  0  0  0  0  0
   95.2084   51.3884  268.0894 H   0  0  0  0  0  0  0  0  0  0  0  0
   93.9824   52.2314  267.0828 H   0  0  0  0  0  0  0  0  0  0  0  0
   95.2014   53.8155  268.5197 H   0  0  0  0  0  0  0  0  0  0  0  0
   91.7600   50.4657  269.9250 H   0  0  0  0  0  0  0  0  0  0  0  0
   91.3838   47.3909  263.8698 H   0  0  0  0  0  0  0  0  0  0  0  0
   88.1763   45.3032  262.1848 H   0  0  0  0  0  0  0  0  0  0  0  0
   86.8539   45.5415  264.2451 H   0  0  0  0  0  0  0  0  0  0  0  0
   87.7485   45.7855  269.0276 H   0  0  0  0  0  0  0  0  0  0  0  0
   88.2707   44.6728  267.7179 H   0  0  0  0  0  0  0  0  0  0  0  0
   89.3322   46.0332  268.2172 H   0  0  0  0  0  0  0  0  0  0  0  0
   92.5033   55.2062  273.3521 H   0  0  0  0  0  0  0  0  0  0  0  0
  1  4  1  0  0  0  0
  1  6  2  0  0  0  0
  1 11  1  0  0  0  0
  2  3  1  0  0  0  0
  2  5  2  0  0  0  0
  3  4  1  0  0  0  0
  3 15  2  3  0  0  0
  5  6  1  0  0  0  0
  5 10  1  0  0  0  0
  6  7  1  0  0  0  0
  7  8  2  0  0  0  0
  8  9  1  0  0  0  0
  9 10  2  0  0  0  0
 11 12  1  0  0  0  0
 11 14  2  0  0  0  0
 12 13  1  0  0  0  0
 13 27  2  0  0  0  0
 14 26  1  0  0  0  0
 15 16  1  0  0  0  0
 16 17  2  0  0  0  0
 16 21  1  0  0  0  0
 17 18  1  0  0  0  0
 18 19  2  0  0  0  0
 19 20  1  0  0  0  0
 20 21  2  0  0  0  0
 21 22  1  0  0  0  0
 22 23  2  0  0  0  0
 22 24  2  0  0  0  0
 22 25  1  0  0  0  0
 26 27  1  0  0  0  0
 26 30  2  0  0  0  0
 27 28  1  0  0  0  0
 28 29  1  0  0  0  0
 29 30  1  0  0  0  0
 29 31  2  0  0  0  0
  2 32  1  0  0  0  0
  4 33  1  0  0  0  0
  4 34  1  0  0  0  0
  8 35  1  0  0  0  0
  9 36  1  0  0  0  0
 12 37  1  0  0  0  0
 12 38  1  0  0  0  0
 13 39  1  0  0  0  0
 14 40  1  0  0  0  0
 17 41  1  0  0  0  0
 19 42  1  0  0  0  0
 20 43  1  0  0  0  0
 25 44  1  0  0  0  0
 25 45  1  0  0  0  0
 25 46  1  0  0  0  0
 31 47  1  0  0  0  0
M  END
> <ID>
67

> <IC50[uM]>
0.031

$$$$
67
  -OEChem-05192314313D
 Structure written by MMmdl.
 47 51  0     0  0  0  0  0  0999 V2000
   93.1004   49.7216  267.7155 C   0  0  0  0  0  0  0  0  0  0  0  0
   92.5890   47.2745  266.3896 C   0  0  0  0  0  0  0  0  0  0  0  0
   91.5683   48.2049  266.5759 C   0  0  0  0  0  0  0  0  0  0  0  0
   91.8300   49.4026  267.2297 C   0  0  0  0  0  0  0  0  0  0  0  0
   93.8878   47.5400  266.8820 C   0  0  0  0  0  0  0  0  0  0  0  0
   94.1599   48.7802  267.5411 C   0  0  0  0  0  0  0  0  0  0  0  0
   95.4145   49.0346  268.0280 N   0  0  0  0  0  0  0  0  0  0  0  0
   96.3713   48.0905  267.8536 C   0  0  0  0  0  0  0  0  0  0  0  0
   96.0910   46.8809  267.2282 C   0  0  0  0  0  0  0  0  0  0  0  0
   94.8599   46.5971  266.7393 N   0  0  0  0  0  0  0  0  0  0  0  0
   93.2846   50.9778  268.4857 C   0  0  0  0  0  0  0  0  0  0  0  0
   94.2454   51.9199  268.1045 C   0  0  0  0  0  0  0  0  0  0  0  0
   94.4590   53.0941  268.8278 C   0  0  0  0  0  0  0  0  0  0  0  0
   92.5073   51.1876  269.6303 C   0  0  0  0  0  0  0  0  0  0  0  0
   90.2493   47.9429  266.1975 N   0  0  0  0  0  0  0  0  0  0  0  0
   89.6938   47.1846  265.1577 C   0  0  0  0  0  0  0  0  0  0  0  0
   90.3836   46.9926  263.9558 C   0  0  0  0  0  0  0  0  0  0  0  0
   89.8604   46.3316  262.8928 N   0  0  0  0  0  0  0  0  0  0  0  0
   88.6069   45.8318  263.0224 C   0  0  0  0  0  0  0  0  0  0  0  0
   87.8451   45.9660  264.1837 C   0  0  0  0  0  0  0  0  0  0  0  0
   88.3928   46.6627  265.2677 C   0  0  0  0  0  0  0  0  0  0  0  0
   87.4640   46.8258  266.7979 S   0  0  0  0  0  0  0  0  0  0  0  0
   87.6173   48.2190  267.2276 O   0  0  0  0  0  0  0  0  0  0  0  0
   86.1278   46.2817  266.5368 O   0  0  0  0  0  0  0  0  0  0  0  0
   88.2895   45.7139  268.0726 C   0  0  0  0  0  0  0  0  0  0  0  0
   92.7122   52.3451  270.3867 C   0  0  0  0  0  0  0  0  0  0  0  0
   93.6742   53.3006  269.9675 C   0  0  0  0  0  0  0  0  0  0  0  0
   93.6619   54.6467  271.0869 S   0  0  0  0  0  0  0  0  0  0  0  0
   92.4847   53.7751  272.0143 C   0  0  0  0  0  0  0  0  0  0  0  0
   92.0618   52.6441  271.5401 N   0  0  0  0  0  0  0  0  0  0  0  0
   92.0618   54.3270  273.1729 N   0  0  0  0  0  0  0  0  0  0  0  0
   92.3879   46.3500  265.8687 H   0  0  0  0  0  0  0  0  0  0  0  0
   91.1529   49.4341  268.0960 H   0  0  0  0  0  0  0  0  0  0  0  0
   91.5608   50.2028  266.5246 H   0  0  0  0  0  0  0  0  0  0  0  0
   97.3733   48.2821  268.2082 H   0  0  0  0  0  0  0  0  0  0  0  0
   96.8769   46.1468  267.1294 H   0  0  0  0  0  0  0  0  0  0  0  0
   94.8406   51.7329  267.2229 H   0  0  0  0  0  0  0  0  0  0  0  0
   95.2014   53.8155  268.5197 H   0  0  0  0  0  0  0  0  0  0  0  0
   91.4554   51.1950  269.3085 H   0  0  0  0  0  0  0  0  0  0  0  0
   92.6803   50.3312  270.2986 H   0  0  0  0  0  0  0  0  0  0  0  0
   91.3838   47.3909  263.8698 H   0  0  0  0  0  0  0  0  0  0  0  0
   88.1763   45.3032  262.1848 H   0  0  0  0  0  0  0  0  0  0  0  0
   86.8539   45.5415  264.2451 H   0  0  0  0  0  0  0  0  0  0  0  0
   87.7485   45.7855  269.0276 H   0  0  0  0  0  0  0  0  0  0  0  0
   88.2707   44.6728  267.7179 H   0  0  0  0  0  0  0  0  0  0  0  0
   89.3322   46.0332  268.2172 H   0  0  0  0  0  0  0  0  0  0  0  0
   92.5033   55.2062  273.3521 H   0  0  0  0  0  0  0  0  0  0  0  0
  1  4  1  0  0  0  0
  1  6  2  0  0  0  0
  1 11  1  0  0  0  0
  2  3  1  0  0  0  0
  2  5  2  0  0  0  0
  3  4  1  0  0  0  0
  3 15  2  3  0  0  0
  5  6  1  0  0  0  0
  5 10  1  0  0  0  0
  6  7  1  0  0  0  0
  7  8  2  0  0  0  0
  8  9  1  0  0  0  0
  9 10  2  0  0  0  0
 11 12  2  0  0  0  0
 11 14  1  0  0  0  0
 12 13  1  0  0  0  0
 13 27  2  0  0  0  0
 14 26  1  0  0  0  0
 15 16  1  0  0  0  0
 16 17  2  0  0  0  0
 16 21  1  0  0  0  0
 17 18  1  0  0  0  0
 18 19  2  0  0  0  0
 19 20  1  0  0  0  0
 20 21  2  0  0  0  0
 21 22  1  0  0  0  0
 22 23  2  0  0  0  0
 22 24  2  0  0  0  0
 22 25  1  0  0  0  0
 26 27  1  0  0  0  0
 26 30  2  0  0  0  0
 27 28  1  0  0  0  0
 28 29  1  0  0  0  0
 29 30  1  0  0  0  0
 29 31  2  0  0  0  0
  2 32  1  0  0  0  0
  4 33  1  0  0  0  0
  4 34  1  0  0  0  0
  8 35  1  0  0  0  0
  9 36  1  0  0  0  0
 12 37  1  0  0  0  0
 13 38  1  0  0  0  0
 14 39  1  0  0  0  0
 14 40  1  0  0  0  0
 17 41  1  0  0  0  0
 19 42  1  0  0  0  0
 20 43  1  0  0  0  0
 25 44  1  0  0  0  0
 25 45  1  0  0  0  0
 25 46  1  0  0  0  0
 31 47  1  0  0  0  0
M  END
> <ID>
67

> <IC50[uM]>
0.031

$$$$
67
  -OEChem-05192314313D
 Structure written by MMmdl.
 47 51  0     1  0  0  0  0  0999 V2000
   93.1004   49.7216  267.7155 C   0  0  0  0  0  0  0  0  0  0  0  0
   92.5890   47.2745  266.3896 C   0  0  0  0  0  0  0  0  0  0  0  0
   91.5683   48.2049  266.5759 C   0  0  0  0  0  0  0  0  0  0  0  0
   91.8300   49.4026  267.2297 C   0  0  0  0  0  0  0  0  0  0  0  0
   93.8878   47.5400  266.8820 C   0  0  0  0  0  0  0  0  0  0  0  0
   94.1599   48.7802  267.5411 C   0  0  0  0  0  0  0  0  0  0  0  0
   95.4145   49.0346  268.0280 N   0  0  0  0  0  0  0  0  0  0  0  0
   96.3713   48.0905  267.8536 C   0  0  0  0  0  0  0  0  0  0  0  0
   96.0910   46.8809  267.2282 C   0  0  0  0  0  0  0  0  0  0  0  0
   94.8599   46.5971  266.7393 N   0  0  0  0  0  0  0  0  0  0  0  0
   93.2846   50.9778  268.4857 C   0  0  0  0  0  0  0  0  0  0  0  0
   94.2454   51.9199  268.1045 C   0  0  0  0  0  0  0  0  0  0  0  0
   94.4590   53.0941  268.8278 C   0  0  0  0  0  0  0  0  0  0  0  0
   92.5073   51.1876  269.6303 C   0  0  0  0  0  0  0  0  0  0  0  0
   90.2493   47.9429  266.1975 N   0  0  0  0  0  0  0  0  0  0  0  0
   89.6938   47.1846  265.1577 C   0  0  0  0  0  0  0  0  0  0  0  0
   90.3836   46.9926  263.9558 C   0  0  0  0  0  0  0  0  0  0  0  0
   89.8604   46.3316  262.8928 N   0  0  0  0  0  0  0  0  0  0  0  0
   88.6069   45.8318  263.0224 C   0  0  0  0  0  0  0  0  0  0  0  0
   87.8451   45.9660  264.1837 C   0  0  0  0  0  0  0  0  0  0  0  0
   88.3928   46.6627  265.2677 C   0  0  3  0  0  0  0  0  0  0  0  0
   87.4640   46.8258  266.7979 S   0  0  0  0  0  0  0  0  0  0  0  0
   87.6173   48.2190  267.2276 O   0  0  0  0  0  0  0  0  0  0  0  0
   86.1278   46.2817  266.5368 O   0  0  0  0  0  0  0  0  0  0  0  0
   88.2895   45.7139  268.0726 C   0  0  0  0  0  0  0  0  0  0  0  0
   92.7122   52.3451  270.3867 C   0  0  0  0  0  0  0  0  0  0  0  0
   93.6742   53.3006  269.9675 C   0  0  3  0  0  0  0  0  0  0  0  0
   93.6619   54.6467  271.0869 S   0  0  0  0  0  0  0  0  0  0  0  0
   92.4847   53.7751  272.0143 C   0  0  0  0  0  0  0  0  0  0  0  0
   92.0618   52.6441  271.5401 N   0  0  0  0  0  0  0  0  0  0  0  0
   92.0618   54.3270  273.1729 N   0  0  0  0  0  0  0  0  0  0  0  0
   92.3879   46.3500  265.8687 H   0  0  0  0  0  0  0  0  0  0  0  0
   91.0253   50.1098  267.3668 H   0  0  0  0  0  0  0  0  0  0  0  0
   97.3733   48.2821  268.2082 H   0  0  0  0  0  0  0  0  0  0  0  0
   96.8769   46.1468  267.1294 H   0  0  0  0  0  0  0  0  0  0  0  0
   94.8406   51.7329  267.2229 H   0  0  0  0  0  0  0  0  0  0  0  0
   95.2014   53.8155  268.5197 H   0  0  0  0  0  0  0  0  0  0  0  0
   91.7600   50.4657  269.9250 H   0  0  0  0  0  0  0  0  0  0  0  0
   91.3838   47.3909  263.8698 H   0  0  0  0  0  0  0  0  0  0  0  0
   88.1763   45.3032  262.1848 H   0  0  0  0  0  0  0  0  0  0  0  0
   86.8539   45.5415  264.2451 H   0  0  0  0  0  0  0  0  0  0  0  0
   87.9671   47.6062  264.8954 H   0  0  0  0  0  0  0  0  0  0  0  0
   87.7485   45.7855  269.0276 H   0  0  0  0  0  0  0  0  0  0  0  0
   88.2707   44.6728  267.7179 H   0  0  0  0  0  0  0  0  0  0  0  0
   89.3322   46.0332  268.2172 H   0  0  0  0  0  0  0  0  0  0  0  0
   92.9114   53.8021  269.3537 H   0  0  0  0  0  0  0  0  0  0  0  0
   92.5033   55.2062  273.3521 H   0  0  0  0  0  0  0  0  0  0  0  0
  1  4  2  0  0  0  0
  1  6  1  0  0  0  0
  1 11  1  0  0  0  0
  2  3  2  0  0  0  0
  2  5  1  0  0  0  0
  3  4  1  0  0  0  0
  3 15  1  0  0  0  0
  5  6  2  0  0  0  0
  5 10  1  0  0  0  0
  6  7  1  0  0  0  0
  7  8  2  0  0  0  0
  8  9  1  0  0  0  0
  9 10  2  0  0  0  0
 11 12  1  0  0  0  0
 11 14  2  0  0  0  0
 12 13  2  0  0  0  0
 13 27  1  0  0  0  0
 14 26  1  0  0  0  0
 15 16  2  0  0  0  0
 16 17  1  0  0  0  0
 16 21  1  0  0  0  0
 17 18  2  0  0  0  0
 18 19  1  0  0  0  0
 19 20  2  0  0  0  0
 20 21  1  0  0  0  0
 21 22  1  0  0  0  0
 22 23  2  0  0  0  0
 22 24  2  0  0  0  0
 22 25  1  0  0  0  0
 26 27  1  0  0  0  0
 26 30  2  0  0  0  0
 27 28  1  0  0  0  0
 28 29  1  0  0  0  0
 29 30  1  0  0  0  0
 29 31  2  0  0  0  0
  2 32  1  0  0  0  0
  4 33  1  0  0  0  0
  8 34  1  0  0  0  0
  9 35  1  0  0  0  0
 12 36  1  0  0  0  0
 13 37  1  0  0  0  0
 14 38  1  0  0  0  0
 17 39  1  0  0  0  0
 19 40  1  0  0  0  0
 20 41  1  0  0  0  0
 21 42  1  0  0  0  0
 25 43  1  0  0  0  0
 25 44  1  0  0  0  0
 25 45  1  0  0  0  0
 27 46  1  0  0  0  0
 31 47  1  0  0  0  0
M  END
> <ID>
67

> <IC50[uM]>
0.031

$$$$
67
  -OEChem-05192314313D
 Structure written by MMmdl.
 47 51  0     1  0  0  0  0  0999 V2000
   93.1004   49.7216  267.7155 C   0  0  0  0  0  0  0  0  0  0  0  0
   92.5890   47.2745  266.3896 C   0  0  0  0  0  0  0  0  0  0  0  0
   91.5683   48.2049  266.5759 C   0  0  0  0  0  0  0  0  0  0  0  0
   91.8300   49.4026  267.2297 C   0  0  0  0  0  0  0  0  0  0  0  0
   93.8878   47.5400  266.8820 C   0  0  0  0  0  0  0  0  0  0  0  0
   94.1599   48.7802  267.5411 C   0  0  0  0  0  0  0  0  0  0  0  0
   95.4145   49.0346  268.0280 N   0  0  0  0  0  0  0  0  0  0  0  0
   96.3713   48.0905  267.8536 C   0  0  0  0  0  0  0  0  0  0  0  0
   96.0910   46.8809  267.2282 C   0  0  0  0  0  0  0  0  0  0  0  0
   94.8599   46.5971  266.7393 N   0  0  0  0  0  0  0  0  0  0  0  0
   93.2846   50.9778  268.4857 C   0  0  0  0  0  0  0  0  0  0  0  0
   94.2454   51.9199  268.1045 C   0  0  0  0  0  0  0  0  0  0  0  0
   94.4590   53.0941  268.8278 C   0  0  0  0  0  0  0  0  0  0  0  0
   92.5073   51.1876  269.6303 C   0  0  0  0  0  0  0  0  0  0  0  0
   90.2493   47.9429  266.1975 N   0  0  0  0  0  0  0  0  0  0  0  0
   89.6938   47.1846  265.1577 C   0  0  0  0  0  0  0  0  0  0  0  0
   90.3836   46.9926  263.9558 C   0  0  0  0  0  0  0  0  0  0  0  0
   89.8604   46.3316  262.8928 N   0  0  0  0  0  0  0  0  0  0  0  0
   88.6069   45.8318  263.0224 C   0  0  0  0  0  0  0  0  0  0  0  0
   87.8451   45.9660  264.1837 C   0  0  0  0  0  0  0  0  0  0  0  0
   88.3928   46.6627  265.2677 C   0  0  3  0  0  0  0  0  0  0  0  0
   87.4640   46.8258  266.7979 S   0  0  0  0  0  0  0  0  0  0  0  0
   87.6173   48.2190  267.2276 O   0  0  0  0  0  0  0  0  0  0  0  0
   86.1278   46.2817  266.5368 O   0  0  0  0  0  0  0  0  0  0  0  0
   88.2895   45.7139  268.0726 C   0  0  0  0  0  0  0  0  0  0  0  0
   92.7122   52.3451  270.3867 C   0  0  0  0  0  0  0  0  0  0  0  0
   93.6742   53.3006  269.9675 C   0  0  0  0  0  0  0  0  0  0  0  0
   93.6619   54.6467  271.0869 S   0  0  0  0  0  0  0  0  0  0  0  0
   92.4847   53.7751  272.0143 C   0  0  0  0  0  0  0  0  0  0  0  0
   92.0618   52.6441  271.5401 N   0  0  0  0  0  0  0  0  0  0  0  0
   92.0618   54.3270  273.1729 N   0  0  0  0  0  0  0  0  0  0  0  0
   92.3879   46.3500  265.8687 H   0  0  0  0  0  0  0  0  0  0  0  0
   91.0253   50.1098  267.3668 H   0  0  0  0  0  0  0  0  0  0  0  0
   97.3733   48.2821  268.2082 H   0  0  0  0  0  0  0  0  0  0  0  0
   96.8769   46.1468  267.1294 H   0  0  0  0  0  0  0  0  0  0  0  0
   95.2084   51.3884  268.0894 H   0  0  0  0  0  0  0  0  0  0  0  0
   93.9824   52.2314  267.0828 H   0  0  0  0  0  0  0  0  0  0  0  0
   95.2014   53.8155  268.5197 H   0  0  0  0  0  0  0  0  0  0  0  0
   91.7600   50.4657  269.9250 H   0  0  0  0  0  0  0  0  0  0  0  0
   91.3838   47.3909  263.8698 H   0  0  0  0  0  0  0  0  0  0  0  0
   88.1763   45.3032  262.1848 H   0  0  0  0  0  0  0  0  0  0  0  0
   86.8539   45.5415  264.2451 H   0  0  0  0  0  0  0  0  0  0  0  0
   87.9671   47.6062  264.8954 H   0  0  0  0  0  0  0  0  0  0  0  0
   87.7485   45.7855  269.0276 H   0  0  0  0  0  0  0  0  0  0  0  0
   88.2707   44.6728  267.7179 H   0  0  0  0  0  0  0  0  0  0  0  0
   89.3322   46.0332  268.2172 H   0  0  0  0  0  0  0  0  0  0  0  0
   92.5033   55.2062  273.3521 H   0  0  0  0  0  0  0  0  0  0  0  0
  1  4  2  0  0  0  0
  1  6  1  0  0  0  0
  1 11  1  0  0  0  0
  2  3  2  0  0  0  0
  2  5  1  0  0  0  0
  3  4  1  0  0  0  0
  3 15  1  0  0  0  0
  5  6  2  0  0  0  0
  5 10  1  0  0  0  0
  6  7  1  0  0  0  0
  7  8  2  0  0  0  0
  8  9  1  0  0  0  0
  9 10  2  0  0  0  0
 11 12  1  0  0  0  0
 11 14  2  0  0  0  0
 12 13  1  0  0  0  0
 13 27  2  0  0  0  0
 14 26  1  0  0  0  0
 15 16  2  0  0  0  0
 16 17  1  0  0  0  0
 16 21  1  0  0  0  0
 17 18  2  0  0  0  0
 18 19  1  0  0  0  0
 19 20  2  0  0  0  0
 20 21  1  0  0  0  0
 21 22  1  0  0  0  0
 22 23  2  0  0  0  0
 22 24  2  0  0  0  0
 22 25  1  0  0  0  0
 26 27  1  0  0  0  0
 26 30  2  0  0  0  0
 27 28  1  0  0  0  0
 28 29  1  0  0  0  0
 29 30  1  0  0  0  0
 29 31  2  0  0  0  0
  2 32  1  0  0  0  0
  4 33  1  0  0  0  0
  8 34  1  0  0  0  0
  9 35  1  0  0  0  0
 12 36  1  0  0  0  0
 12 37  1  0  0  0  0
 13 38  1  0  0  0  0
 14 39  1  0  0  0  0
 17 40  1  0  0  0  0
 19 41  1  0  0  0  0
 20 42  1  0  0  0  0
 21 43  1  0  0  0  0
 25 44  1  0  0  0  0
 25 45  1  0  0  0  0
 25 46  1  0  0  0  0
 31 47  1  0  0  0  0
M  END
> <ID>
67

> <IC50[uM]>
0.031

$$$$
67
  -OEChem-05192314313D
 Structure written by MMmdl.
 47 51  0     1  0  0  0  0  0999 V2000
   93.1004   49.7216  267.7155 C   0  0  0  0  0  0  0  0  0  0  0  0
   92.5890   47.2745  266.3896 C   0  0  0  0  0  0  0  0  0  0  0  0
   91.5683   48.2049  266.5759 C   0  0  0  0  0  0  0  0  0  0  0  0
   91.8300   49.4026  267.2297 C   0  0  0  0  0  0  0  0  0  0  0  0
   93.8878   47.5400  266.8820 C   0  0  0  0  0  0  0  0  0  0  0  0
   94.1599   48.7802  267.5411 C   0  0  0  0  0  0  0  0  0  0  0  0
   95.4145   49.0346  268.0280 N   0  0  0  0  0  0  0  0  0  0  0  0
   96.3713   48.0905  267.8536 C   0  0  0  0  0  0  0  0  0  0  0  0
   96.0910   46.8809  267.2282 C   0  0  0  0  0  0  0  0  0  0  0  0
   94.8599   46.5971  266.7393 N   0  0  0  0  0  0  0  0  0  0  0  0
   93.2846   50.9778  268.4857 C   0  0  0  0  0  0  0  0  0  0  0  0
   94.2454   51.9199  268.1045 C   0  0  0  0  0  0  0  0  0  0  0  0
   94.4590   53.0941  268.8278 C   0  0  0  0  0  0  0  0  0  0  0  0
   92.5073   51.1876  269.6303 C   0  0  0  0  0  0  0  0  0  0  0  0
   90.2493   47.9429  266.1975 N   0  0  0  0  0  0  0  0  0  0  0  0
   89.6938   47.1846  265.1577 C   0  0  0  0  0  0  0  0  0  0  0  0
   90.3836   46.9926  263.9558 C   0  0  0  0  0  0  0  0  0  0  0  0
   89.8604   46.3316  262.8928 N   0  0  0  0  0  0  0  0  0  0  0  0
   88.6069   45.8318  263.0224 C   0  0  0  0  0  0  0  0  0  0  0  0
   87.8451   45.9660  264.1837 C   0  0  0  0  0  0  0  0  0  0  0  0
   88.3928   46.6627  265.2677 C   0  0  3  0  0  0  0  0  0  0  0  0
   87.4640   46.8258  266.7979 S   0  0  0  0  0  0  0  0  0  0  0  0
   87.6173   48.2190  267.2276 O   0  0  0  0  0  0  0  0  0  0  0  0
   86.1278   46.2817  266.5368 O   0  0  0  0  0  0  0  0  0  0  0  0
   88.2895   45.7139  268.0726 C   0  0  0  0  0  0  0  0  0  0  0  0
   92.7122   52.3451  270.3867 C   0  0  0  0  0  0  0  0  0  0  0  0
   93.6742   53.3006  269.9675 C   0  0  0  0  0  0  0  0  0  0  0  0
   93.6619   54.6467  271.0869 S   0  0  0  0  0  0  0  0  0  0  0  0
   92.4847   53.7751  272.0143 C   0  0  0  0  0  0  0  0  0  0  0  0
   92.0618   52.6441  271.5401 N   0  0  0  0  0  0  0  0  0  0  0  0
   92.0618   54.3270  273.1729 N   0  0  0  0  0  0  0  0  0  0  0  0
   92.3879   46.3500  265.8687 H   0  0  0  0  0  0  0  0  0  0  0  0
   91.0253   50.1098  267.3668 H   0  0  0  0  0  0  0  0  0  0  0  0
   97.3733   48.2821  268.2082 H   0  0  0  0  0  0  0  0  0  0  0  0
   96.8769   46.1468  267.1294 H   0  0  0  0  0  0  0  0  0  0  0  0
   94.8406   51.7329  267.2229 H   0  0  0  0  0  0  0  0  0  0  0  0
   95.2014   53.8155  268.5197 H   0  0  0  0  0  0  0  0  0  0  0  0
   91.4554   51.1950  269.3085 H   0  0  0  0  0  0  0  0  0  0  0  0
   92.6803   50.3312  270.2986 H   0  0  0  0  0  0  0  0  0  0  0  0
   91.3838   47.3909  263.8698 H   0  0  0  0  0  0  0  0  0  0  0  0
   88.1763   45.3032  262.1848 H   0  0  0  0  0  0  0  0  0  0  0  0
   86.8539   45.5415  264.2451 H   0  0  0  0  0  0  0  0  0  0  0  0
   87.9671   47.6062  264.8954 H   0  0  0  0  0  0  0  0  0  0  0  0
   87.7485   45.7855  269.0276 H   0  0  0  0  0  0  0  0  0  0  0  0
   88.2707   44.6728  267.7179 H   0  0  0  0  0  0  0  0  0  0  0  0
   89.3322   46.0332  268.2172 H   0  0  0  0  0  0  0  0  0  0  0  0
   92.5033   55.2062  273.3521 H   0  0  0  0  0  0  0  0  0  0  0  0
  1  4  2  0  0  0  0
  1  6  1  0  0  0  0
  1 11  1  0  0  0  0
  2  3  2  0  0  0  0
  2  5  1  0  0  0  0
  3  4  1  0  0  0  0
  3 15  1  0  0  0  0
  5  6  2  0  0  0  0
  5 10  1  0  0  0  0
  6  7  1  0  0  0  0
  7  8  2  0  0  0  0
  8  9  1  0  0  0  0
  9 10  2  0  0  0  0
 11 12  2  0  0  0  0
 11 14  1  0  0  0  0
 12 13  1  0  0  0  0
 13 27  2  0  0  0  0
 14 26  1  0  0  0  0
 15 16  2  0  0  0  0
 16 17  1  0  0  0  0
 16 21  1  0  0  0  0
 17 18  2  0  0  0  0
 18 19  1  0  0  0  0
 19 20  2  0  0  0  0
 20 21  1  0  0  0  0
 21 22  1  0  0  0  0
 22 23  2  0  0  0  0
 22 24  2  0  0  0  0
 22 25  1  0  0  0  0
 26 27  1  0  0  0  0
 26 30  2  0  0  0  0
 27 28  1  0  0  0  0
 28 29  1  0  0  0  0
 29 30  1  0  0  0  0
 29 31  2  0  0  0  0
  2 32  1  0  0  0  0
  4 33  1  0  0  0  0
  8 34  1  0  0  0  0
  9 35  1  0  0  0  0
 12 36  1  0  0  0  0
 13 37  1  0  0  0  0
 14 38  1  0  0  0  0
 14 39  1  0  0  0  0
 17 40  1  0  0  0  0
 19 41  1  0  0  0  0
 20 42  1  0  0  0  0
 21 43  1  0  0  0  0
 25 44  1  0  0  0  0
 25 45  1  0  0  0  0
 25 46  1  0  0  0  0
 31 47  1  0  0  0  0
M  END
> <ID>
67

> <IC50[uM]>
0.031

$$$$
67
  -OEChem-05192314313D
 Structure written by MMmdl.
 47 51  0     1  0  0  0  0  0999 V2000
   93.1004   49.7216  267.7155 C   0  0  0  0  0  0  0  0  0  0  0  0
   92.5890   47.2745  266.3896 C   0  0  0  0  0  0  0  0  0  0  0  0
   91.5683   48.2049  266.5759 C   0  0  0  0  0  0  0  0  0  0  0  0
   91.8300   49.4026  267.2297 C   0  0  0  0  0  0  0  0  0  0  0  0
   93.8878   47.5400  266.8820 C   0  0  0  0  0  0  0  0  0  0  0  0
   94.1599   48.7802  267.5411 C   0  0  0  0  0  0  0  0  0  0  0  0
   95.4145   49.0346  268.0280 N   0  0  0  0  0  0  0  0  0  0  0  0
   96.3713   48.0905  267.8536 C   0  0  0  0  0  0  0  0  0  0  0  0
   96.0910   46.8809  267.2282 C   0  0  0  0  0  0  0  0  0  0  0  0
   94.8599   46.5971  266.7393 N   0  0  0  0  0  0  0  0  0  0  0  0
   93.2846   50.9778  268.4857 C   0  0  0  0  0  0  0  0  0  0  0  0
   94.2454   51.9199  268.1045 C   0  0  0  0  0  0  0  0  0  0  0  0
   94.4590   53.0941  268.8278 C   0  0  0  0  0  0  0  0  0  0  0  0
   92.5073   51.1876  269.6303 C   0  0  0  0  0  0  0  0  0  0  0  0
   90.2493   47.9429  266.1975 N   0  0  0  0  0  0  0  0  0  0  0  0
   89.6938   47.1846  265.1577 C   0  0  0  0  0  0  0  0  0  0  0  0
   90.3836   46.9926  263.9558 C   0  0  0  0  0  0  0  0  0  0  0  0
   89.8604   46.3316  262.8928 N   0  0  0  0  0  0  0  0  0  0  0  0
   88.6069   45.8318  263.0224 C   0  0  0  0  0  0  0  0  0  0  0  0
   87.8451   45.9660  264.1837 C   0  0  0  0  0  0  0  0  0  0  0  0
   88.3928   46.6627  265.2677 C   0  0  0  0  0  0  0  0  0  0  0  0
   87.4640   46.8258  266.7979 S   0  0  0  0  0  0  0  0  0  0  0  0
   87.6173   48.2190  267.2276 O   0  0  0  0  0  0  0  0  0  0  0  0
   86.1278   46.2817  266.5368 O   0  0  0  0  0  0  0  0  0  0  0  0
   88.2895   45.7139  268.0726 C   0  0  0  0  0  0  0  0  0  0  0  0
   92.7122   52.3451  270.3867 C   0  0  0  0  0  0  0  0  0  0  0  0
   93.6742   53.3006  269.9675 C   0  0  3  0  0  0  0  0  0  0  0  0
   93.6619   54.6467  271.0869 S   0  0  0  0  0  0  0  0  0  0  0  0
   92.4847   53.7751  272.0143 C   0  0  0  0  0  0  0  0  0  0  0  0
   92.0618   52.6441  271.5401 N   0  0  0  0  0  0  0  0  0  0  0  0
   92.0618   54.3270  273.1729 N   0  0  0  0  0  0  0  0  0  0  0  0
   92.3879   46.3500  265.8687 H   0  0  0  0  0  0  0  0  0  0  0  0
   91.0253   50.1098  267.3668 H   0  0  0  0  0  0  0  0  0  0  0  0
   97.3733   48.2821  268.2082 H   0  0  0  0  0  0  0  0  0  0  0  0
   96.8769   46.1468  267.1294 H   0  0  0  0  0  0  0  0  0  0  0  0
   94.8406   51.7329  267.2229 H   0  0  0  0  0  0  0  0  0  0  0  0
   95.2014   53.8155  268.5197 H   0  0  0  0  0  0  0  0  0  0  0  0
   91.7600   50.4657  269.9250 H   0  0  0  0  0  0  0  0  0  0  0  0
   91.3838   47.3909  263.8698 H   0  0  0  0  0  0  0  0  0  0  0  0
   88.0141   46.2918  262.2180 H   0  0  0  0  0  0  0  0  0  0  0  0
   88.6933   44.7502  262.8417 H   0  0  0  0  0  0  0  0  0  0  0  0
   86.8539   45.5415  264.2451 H   0  0  0  0  0  0  0  0  0  0  0  0
   87.7485   45.7855  269.0276 H   0  0  0  0  0  0  0  0  0  0  0  0
   88.2707   44.6728  267.7179 H   0  0  0  0  0  0  0  0  0  0  0  0
   89.3322   46.0332  268.2172 H   0  0  0  0  0  0  0  0  0  0  0  0
   92.9114   53.8021  269.3537 H   0  0  0  0  0  0  0  0  0  0  0  0
   92.5033   55.2062  273.3521 H   0  0  0  0  0  0  0  0  0  0  0  0
  1  4  2  0  0  0  0
  1  6  1  0  0  0  0
  1 11  1  0  0  0  0
  2  3  2  0  0  0  0
  2  5  1  0  0  0  0
  3  4  1  0  0  0  0
  3 15  1  0  0  0  0
  5  6  2  0  0  0  0
  5 10  1  0  0  0  0
  6  7  1  0  0  0  0
  7  8  2  0  0  0  0
  8  9  1  0  0  0  0
  9 10  2  0  0  0  0
 11 12  1  0  0  0  0
 11 14  2  0  0  0  0
 12 13  2  0  0  0  0
 13 27  1  0  0  0  0
 14 26  1  0  0  0  0
 15 16  2  0  0  0  0
 16 17  1  0  0  0  0
 16 21  1  0  0  0  0
 17 18  2  0  0  0  0
 18 19  1  0  0  0  0
 19 20  1  0  0  0  0
 20 21  2  0  0  0  0
 21 22  1  0  0  0  0
 22 23  2  0  0  0  0
 22 24  2  0  0  0  0
 22 25  1  0  0  0  0
 26 27  1  0  0  0  0
 26 30  2  0  0  0  0
 27 28  1  0  0  0  0
 28 29  1  0  0  0  0
 29 30  1  0  0  0  0
 29 31  2  0  0  0  0
  2 32  1  0  0  0  0
  4 33  1  0  0  0  0
  8 34  1  0  0  0  0
  9 35  1  0  0  0  0
 12 36  1  0  0  0  0
 13 37  1  0  0  0  0
 14 38  1  0  0  0  0
 17 39  1  0  0  0  0
 19 40  1  0  0  0  0
 19 41  1  0  0  0  0
 20 42  1  0  0  0  0
 25 43  1  0  0  0  0
 25 44  1  0  0  0  0
 25 45  1  0  0  0  0
 27 46  1  0  0  0  0
 31 47  1  0  0  0  0
M  END
> <ID>
67

> <IC50[uM]>
0.031

$$$$
67
  -OEChem-05192314313D
 Structure written by MMmdl.
 47 51  0     0  0  0  0  0  0999 V2000
   93.1004   49.7216  267.7155 C   0  0  0  0  0  0  0  0  0  0  0  0
   92.5890   47.2745  266.3896 C   0  0  0  0  0  0  0  0  0  0  0  0
   91.5683   48.2049  266.5759 C   0  0  0  0  0  0  0  0  0  0  0  0
   91.8300   49.4026  267.2297 C   0  0  0  0  0  0  0  0  0  0  0  0
   93.8878   47.5400  266.8820 C   0  0  0  0  0  0  0  0  0  0  0  0
   94.1599   48.7802  267.5411 C   0  0  0  0  0  0  0  0  0  0  0  0
   95.4145   49.0346  268.0280 N   0  0  0  0  0  0  0  0  0  0  0  0
   96.3713   48.0905  267.8536 C   0  0  0  0  0  0  0  0  0  0  0  0
   96.0910   46.8809  267.2282 C   0  0  0  0  0  0  0  0  0  0  0  0
   94.8599   46.5971  266.7393 N   0  0  0  0  0  0  0  0  0  0  0  0
   93.2846   50.9778  268.4857 C   0  0  0  0  0  0  0  0  0  0  0  0
   94.2454   51.9199  268.1045 C   0  0  0  0  0  0  0  0  0  0  0  0
   94.4590   53.0941  268.8278 C   0  0  0  0  0  0  0  0  0  0  0  0
   92.5073   51.1876  269.6303 C   0  0  0  0  0  0  0  0  0  0  0  0
   90.2493   47.9429  266.1975 N   0  0  0  0  0  0  0  0  0  0  0  0
   89.6938   47.1846  265.1577 C   0  0  0  0  0  0  0  0  0  0  0  0
   90.3836   46.9926  263.9558 C   0  0  0  0  0  0  0  0  0  0  0  0
   89.8604   46.3316  262.8928 N   0  0  0  0  0  0  0  0  0  0  0  0
   88.6069   45.8318  263.0224 C   0  0  0  0  0  0  0  0  0  0  0  0
   87.8451   45.9660  264.1837 C   0  0  0  0  0  0  0  0  0  0  0  0
   88.3928   46.6627  265.2677 C   0  0  0  0  0  0  0  0  0  0  0  0
   87.4640   46.8258  266.7979 S   0  0  0  0  0  0  0  0  0  0  0  0
   87.6173   48.2190  267.2276 O   0  0  0  0  0  0  0  0  0  0  0  0
   86.1278   46.2817  266.5368 O   0  0  0  0  0  0  0  0  0  0  0  0
   88.2895   45.7139  268.0726 C   0  0  0  0  0  0  0  0  0  0  0  0
   92.7122   52.3451  270.3867 C   0  0  0  0  0  0  0  0  0  0  0  0
   93.6742   53.3006  269.9675 C   0  0  0  0  0  0  0  0  0  0  0  0
   93.6619   54.6467  271.0869 S   0  0  0  0  0  0  0  0  0  0  0  0
   92.4847   53.7751  272.0143 C   0  0  0  0  0  0  0  0  0  0  0  0
   92.0618   52.6441  271.5401 N   0  0  0  0  0  0  0  0  0  0  0  0
   92.0618   54.3270  273.1729 N   0  0  0  0  0  0  0  0  0  0  0  0
   92.3879   46.3500  265.8687 H   0  0  0  0  0  0  0  0  0  0  0  0
   91.0253   50.1098  267.3668 H   0  0  0  0  0  0  0  0  0  0  0  0
   97.3733   48.2821  268.2082 H   0  0  0  0  0  0  0  0  0  0  0  0
   96.8769   46.1468  267.1294 H   0  0  0  0  0  0  0  0  0  0  0  0
   95.2084   51.3884  268.0894 H   0  0  0  0  0  0  0  0  0  0  0  0
   93.9824   52.2314  267.0828 H   0  0  0  0  0  0  0  0  0  0  0  0
   95.2014   53.8155  268.5197 H   0  0  0  0  0  0  0  0  0  0  0  0
   91.7600   50.4657  269.9250 H   0  0  0  0  0  0  0  0  0  0  0  0
   91.3838   47.3909  263.8698 H   0  0  0  0  0  0  0  0  0  0  0  0
   88.0141   46.2918  262.2180 H   0  0  0  0  0  0  0  0  0  0  0  0
   88.6933   44.7502  262.8417 H   0  0  0  0  0  0  0  0  0  0  0  0
   86.8539   45.5415  264.2451 H   0  0  0  0  0  0  0  0  0  0  0  0
   87.7485   45.7855  269.0276 H   0  0  0  0  0  0  0  0  0  0  0  0
   88.2707   44.6728  267.7179 H   0  0  0  0  0  0  0  0  0  0  0  0
   89.3322   46.0332  268.2172 H   0  0  0  0  0  0  0  0  0  0  0  0
   92.5033   55.2062  273.3521 H   0  0  0  0  0  0  0  0  0  0  0  0
  1  4  2  0  0  0  0
  1  6  1  0  0  0  0
  1 11  1  0  0  0  0
  2  3  2  0  0  0  0
  2  5  1  0  0  0  0
  3  4  1  0  0  0  0
  3 15  1  0  0  0  0
  5  6  2  0  0  0  0
  5 10  1  0  0  0  0
  6  7  1  0  0  0  0
  7  8  2  0  0  0  0
  8  9  1  0  0  0  0
  9 10  2  0  0  0  0
 11 12  1  0  0  0  0
 11 14  2  0  0  0  0
 12 13  1  0  0  0  0
 13 27  2  0  0  0  0
 14 26  1  0  0  0  0
 15 16  2  0  0  0  0
 16 17  1  0  0  0  0
 16 21  1  0  0  0  0
 17 18  2  0  0  0  0
 18 19  1  0  0  0  0
 19 20  1  0  0  0  0
 20 21  2  0  0  0  0
 21 22  1  0  0  0  0
 22 23  2  0  0  0  0
 22 24  2  0  0  0  0
 22 25  1  0  0  0  0
 26 27  1  0  0  0  0
 26 30  2  0  0  0  0
 27 28  1  0  0  0  0
 28 29  1  0  0  0  0
 29 30  1  0  0  0  0
 29 31  2  0  0  0  0
  2 32  1  0  0  0  0
  4 33  1  0  0  0  0
  8 34  1  0  0  0  0
  9 35  1  0  0  0  0
 12 36  1  0  0  0  0
 12 37  1  0  0  0  0
 13 38  1  0  0  0  0
 14 39  1  0  0  0  0
 17 40  1  0  0  0  0
 19 41  1  0  0  0  0
 19 42  1  0  0  0  0
 20 43  1  0  0  0  0
 25 44  1  0  0  0  0
 25 45  1  0  0  0  0
 25 46  1  0  0  0  0
 31 47  1  0  0  0  0
M  END
> <ID>
67

> <IC50[uM]>
0.031

$$$$
67
  -OEChem-05192314313D
 Structure written by MMmdl.
 47 51  0     0  0  0  0  0  0999 V2000
   93.1004   49.7216  267.7155 C   0  0  0  0  0  0  0  0  0  0  0  0
   92.5890   47.2745  266.3896 C   0  0  0  0  0  0  0  0  0  0  0  0
   91.5683   48.2049  266.5759 C   0  0  0  0  0  0  0  0  0  0  0  0
   91.8300   49.4026  267.2297 C   0  0  0  0  0  0  0  0  0  0  0  0
   93.8878   47.5400  266.8820 C   0  0  0  0  0  0  0  0  0  0  0  0
   94.1599   48.7802  267.5411 C   0  0  0  0  0  0  0  0  0  0  0  0
   95.4145   49.0346  268.0280 N   0  0  0  0  0  0  0  0  0  0  0  0
   96.3713   48.0905  267.8536 C   0  0  0  0  0  0  0  0  0  0  0  0
   96.0910   46.8809  267.2282 C   0  0  0  0  0  0  0  0  0  0  0  0
   94.8599   46.5971  266.7393 N   0  0  0  0  0  0  0  0  0  0  0  0
   93.2846   50.9778  268.4857 C   0  0  0  0  0  0  0  0  0  0  0  0
   94.2454   51.9199  268.1045 C   0  0  0  0  0  0  0  0  0  0  0  0
   94.4590   53.0941  268.8278 C   0  0  0  0  0  0  0  0  0  0  0  0
   92.5073   51.1876  269.6303 C   0  0  0  0  0  0  0  0  0  0  0  0
   90.2493   47.9429  266.1975 N   0  0  0  0  0  0  0  0  0  0  0  0
   89.6938   47.1846  265.1577 C   0  0  0  0  0  0  0  0  0  0  0  0
   90.3836   46.9926  263.9558 C   0  0  0  0  0  0  0  0  0  0  0  0
   89.8604   46.3316  262.8928 N   0  0  0  0  0  0  0  0  0  0  0  0
   88.6069   45.8318  263.0224 C   0  0  0  0  0  0  0  0  0  0  0  0
   87.8451   45.9660  264.1837 C   0  0  0  0  0  0  0  0  0  0  0  0
   88.3928   46.6627  265.2677 C   0  0  0  0  0  0  0  0  0  0  0  0
   87.4640   46.8258  266.7979 S   0  0  0  0  0  0  0  0  0  0  0  0
   87.6173   48.2190  267.2276 O   0  0  0  0  0  0  0  0  0  0  0  0
   86.1278   46.2817  266.5368 O   0  0  0  0  0  0  0  0  0  0  0  0
   88.2895   45.7139  268.0726 C   0  0  0  0  0  0  0  0  0  0  0  0
   92.7122   52.3451  270.3867 C   0  0  0  0  0  0  0  0  0  0  0  0
   93.6742   53.3006  269.9675 C   0  0  0  0  0  0  0  0  0  0  0  0
   93.6619   54.6467  271.0869 S   0  0  0  0  0  0  0  0  0  0  0  0
   92.4847   53.7751  272.0143 C   0  0  0  0  0  0  0  0  0  0  0  0
   92.0618   52.6441  271.5401 N   0  0  0  0  0  0  0  0  0  0  0  0
   92.0618   54.3270  273.1729 N   0  0  0  0  0  0  0  0  0  0  0  0
   92.3879   46.3500  265.8687 H   0  0  0  0  0  0  0  0  0  0  0  0
   91.0253   50.1098  267.3668 H   0  0  0  0  0  0  0  0  0  0  0  0
   97.3733   48.2821  268.2082 H   0  0  0  0  0  0  0  0  0  0  0  0
   96.8769   46.1468  267.1294 H   0  0  0  0  0  0  0  0  0  0  0  0
   94.8406   51.7329  267.2229 H   0  0  0  0  0  0  0  0  0  0  0  0
   95.2014   53.8155  268.5197 H   0  0  0  0  0  0  0  0  0  0  0  0
   91.4554   51.1950  269.3085 H   0  0  0  0  0  0  0  0  0  0  0  0
   92.6803   50.3312  270.2986 H   0  0  0  0  0  0  0  0  0  0  0  0
   91.3838   47.3909  263.8698 H   0  0  0  0  0  0  0  0  0  0  0  0
   88.0141   46.2918  262.2180 H   0  0  0  0  0  0  0  0  0  0  0  0
   88.6933   44.7502  262.8417 H   0  0  0  0  0  0  0  0  0  0  0  0
   86.8539   45.5415  264.2451 H   0  0  0  0  0  0  0  0  0  0  0  0
   87.7485   45.7855  269.0276 H   0  0  0  0  0  0  0  0  0  0  0  0
   88.2707   44.6728  267.7179 H   0  0  0  0  0  0  0  0  0  0  0  0
   89.3322   46.0332  268.2172 H   0  0  0  0  0  0  0  0  0  0  0  0
   92.5033   55.2062  273.3521 H   0  0  0  0  0  0  0  0  0  0  0  0
  1  4  2  0  0  0  0
  1  6  1  0  0  0  0
  1 11  1  0  0  0  0
  2  3  2  0  0  0  0
  2  5  1  0  0  0  0
  3  4  1  0  0  0  0
  3 15  1  0  0  0  0
  5  6  2  0  0  0  0
  5 10  1  0  0  0  0
  6  7  1  0  0  0  0
  7  8  2  0  0  0  0
  8  9  1  0  0  0  0
  9 10  2  0  0  0  0
 11 12  2  0  0  0  0
 11 14  1  0  0  0  0
 12 13  1  0  0  0  0
 13 27  2  0  0  0  0
 14 26  1  0  0  0  0
 15 16  2  0  0  0  0
 16 17  1  0  0  0  0
 16 21  1  0  0  0  0
 17 18  2  0  0  0  0
 18 19  1  0  0  0  0
 19 20  1  0  0  0  0
 20 21  2  0  0  0  0
 21 22  1  0  0  0  0
 22 23  2  0  0  0  0
 22 24  2  0  0  0  0
 22 25  1  0  0  0  0
 26 27  1  0  0  0  0
 26 30  2  0  0  0  0
 27 28  1  0  0  0  0
 28 29  1  0  0  0  0
 29 30  1  0  0  0  0
 29 31  2  0  0  0  0
  2 32  1  0  0  0  0
  4 33  1  0  0  0  0
  8 34  1  0  0  0  0
  9 35  1  0  0  0  0
 12 36  1  0  0  0  0
 13 37  1  0  0  0  0
 14 38  1  0  0  0  0
 14 39  1  0  0  0  0
 17 40  1  0  0  0  0
 19 41  1  0  0  0  0
 19 42  1  0  0  0  0
 20 43  1  0  0  0  0
 25 44  1  0  0  0  0
 25 45  1  0  0  0  0
 25 46  1  0  0  0  0
 31 47  1  0  0  0  0
M  END
> <ID>
67

> <IC50[uM]>
0.031

$$$$
67
  -OEChem-05192314313D
 Structure written by MMmdl.
 47 51  0     1  0  0  0  0  0999 V2000
   93.1004   49.7216  267.7155 C   0  0  0  0  0  0  0  0  0  0  0  0
   92.5890   47.2745  266.3896 C   0  0  0  0  0  0  0  0  0  0  0  0
   91.5683   48.2049  266.5759 C   0  0  0  0  0  0  0  0  0  0  0  0
   91.8300   49.4026  267.2297 C   0  0  0  0  0  0  0  0  0  0  0  0
   93.8878   47.5400  266.8820 C   0  0  0  0  0  0  0  0  0  0  0  0
   94.1599   48.7802  267.5411 C   0  0  0  0  0  0  0  0  0  0  0  0
   95.4145   49.0346  268.0280 N   0  0  0  0  0  0  0  0  0  0  0  0
   96.3713   48.0905  267.8536 C   0  0  0  0  0  0  0  0  0  0  0  0
   96.0910   46.8809  267.2282 C   0  0  0  0  0  0  0  0  0  0  0  0
   94.8599   46.5971  266.7393 N   0  0  0  0  0  0  0  0  0  0  0  0
   93.2846   50.9778  268.4857 C   0  0  0  0  0  0  0  0  0  0  0  0
   94.2454   51.9199  268.1045 C   0  0  0  0  0  0  0  0  0  0  0  0
   94.4590   53.0941  268.8278 C   0  0  0  0  0  0  0  0  0  0  0  0
   92.5073   51.1876  269.6303 C   0  0  0  0  0  0  0  0  0  0  0  0
   90.2493   47.9429  266.1975 N   0  0  0  0  0  0  0  0  0  0  0  0
   89.6938   47.1846  265.1577 C   0  0  0  0  0  0  0  0  0  0  0  0
   90.3836   46.9926  263.9558 C   0  0  0  0  0  0  0  0  0  0  0  0
   89.8604   46.3316  262.8928 N   0  0  0  0  0  0  0  0  0  0  0  0
   88.6069   45.8318  263.0224 C   0  0  0  0  0  0  0  0  0  0  0  0
   87.8451   45.9660  264.1837 C   0  0  0  0  0  0  0  0  0  0  0  0
   88.3928   46.6627  265.2677 C   0  0  0  0  0  0  0  0  0  0  0  0
   87.4640   46.8258  266.7979 S   0  0  0  0  0  0  0  0  0  0  0  0
   87.6173   48.2190  267.2276 O   0  0  0  0  0  0  0  0  0  0  0  0
   86.1278   46.2817  266.5368 O   0  0  0  0  0  0  0  0  0  0  0  0
   88.2895   45.7139  268.0726 C   0  0  0  0  0  0  0  0  0  0  0  0
   92.7122   52.3451  270.3867 C   0  0  0  0  0  0  0  0  0  0  0  0
   93.6742   53.3006  269.9675 C   0  0  3  0  0  0  0  0  0  0  0  0
   93.6619   54.6467  271.0869 S   0  0  0  0  0  0  0  0  0  0  0  0
   92.4847   53.7751  272.0143 C   0  0  0  0  0  0  0  0  0  0  0  0
   92.0618   52.6441  271.5401 N   0  0  0  0  0  0  0  0  0  0  0  0
   92.0618   54.3270  273.1729 N   0  0  0  0  0  0  0  0  0  0  0  0
   92.3879   46.3500  265.8687 H   0  0  0  0  0  0  0  0  0  0  0  0
   91.0253   50.1098  267.3668 H   0  0  0  0  0  0  0  0  0  0  0  0
   97.3733   48.2821  268.2082 H   0  0  0  0  0  0  0  0  0  0  0  0
   96.8769   46.1468  267.1294 H   0  0  0  0  0  0  0  0  0  0  0  0
   94.8406   51.7329  267.2229 H   0  0  0  0  0  0  0  0  0  0  0  0
   95.2014   53.8155  268.5197 H   0  0  0  0  0  0  0  0  0  0  0  0
   91.7600   50.4657  269.9250 H   0  0  0  0  0  0  0  0  0  0  0  0
   90.6373   47.9985  263.5900 H   0  0  0  0  0  0  0  0  0  0  0  0
   91.3062   46.4552  264.2204 H   0  0  0  0  0  0  0  0  0  0  0  0
   88.1763   45.3032  262.1848 H   0  0  0  0  0  0  0  0  0  0  0  0
   86.8539   45.5415  264.2451 H   0  0  0  0  0  0  0  0  0  0  0  0
   87.7485   45.7855  269.0276 H   0  0  0  0  0  0  0  0  0  0  0  0
   88.2707   44.6728  267.7179 H   0  0  0  0  0  0  0  0  0  0  0  0
   89.3322   46.0332  268.2172 H   0  0  0  0  0  0  0  0  0  0  0  0
   92.9114   53.8021  269.3537 H   0  0  0  0  0  0  0  0  0  0  0  0
   92.5033   55.2062  273.3521 H   0  0  0  0  0  0  0  0  0  0  0  0
  1  4  2  0  0  0  0
  1  6  1  0  0  0  0
  1 11  1  0  0  0  0
  2  3  2  0  0  0  0
  2  5  1  0  0  0  0
  3  4  1  0  0  0  0
  3 15  1  0  0  0  0
  5  6  2  0  0  0  0
  5 10  1  0  0  0  0
  6  7  1  0  0  0  0
  7  8  2  0  0  0  0
  8  9  1  0  0  0  0
  9 10  2  0  0  0  0
 11 12  1  0  0  0  0
 11 14  2  0  0  0  0
 12 13  2  0  0  0  0
 13 27  1  0  0  0  0
 14 26  1  0  0  0  0
 15 16  2  0  0  0  0
 16 17  1  0  0  0  0
 16 21  1  0  0  0  0
 17 18  1  0  0  0  0
 18 19  2  0  0  0  0
 19 20  1  0  0  0  0
 20 21  2  0  0  0  0
 21 22  1  0  0  0  0
 22 23  2  0  0  0  0
 22 24  2  0  0  0  0
 22 25  1  0  0  0  0
 26 27  1  0  0  0  0
 26 30  2  0  0  0  0
 27 28  1  0  0  0  0
 28 29  1  0  0  0  0
 29 30  1  0  0  0  0
 29 31  2  0  0  0  0
  2 32  1  0  0  0  0
  4 33  1  0  0  0  0
  8 34  1  0  0  0  0
  9 35  1  0  0  0  0
 12 36  1  0  0  0  0
 13 37  1  0  0  0  0
 14 38  1  0  0  0  0
 17 39  1  0  0  0  0
 17 40  1  0  0  0  0
 19 41  1  0  0  0  0
 20 42  1  0  0  0  0
 25 43  1  0  0  0  0
 25 44  1  0  0  0  0
 25 45  1  0  0  0  0
 27 46  1  0  0  0  0
 31 47  1  0  0  0  0
M  END
> <ID>
67

> <IC50[uM]>
0.031

$$$$
67
  -OEChem-05192314313D
 Structure written by MMmdl.
 47 51  0     0  0  0  0  0  0999 V2000
   93.1004   49.7216  267.7155 C   0  0  0  0  0  0  0  0  0  0  0  0
   92.5890   47.2745  266.3896 C   0  0  0  0  0  0  0  0  0  0  0  0
   91.5683   48.2049  266.5759 C   0  0  0  0  0  0  0  0  0  0  0  0
   91.8300   49.4026  267.2297 C   0  0  0  0  0  0  0  0  0  0  0  0
   93.8878   47.5400  266.8820 C   0  0  0  0  0  0  0  0  0  0  0  0
   94.1599   48.7802  267.5411 C   0  0  0  0  0  0  0  0  0  0  0  0
   95.4145   49.0346  268.0280 N   0  0  0  0  0  0  0  0  0  0  0  0
   96.3713   48.0905  267.8536 C   0  0  0  0  0  0  0  0  0  0  0  0
   96.0910   46.8809  267.2282 C   0  0  0  0  0  0  0  0  0  0  0  0
   94.8599   46.5971  266.7393 N   0  0  0  0  0  0  0  0  0  0  0  0
   93.2846   50.9778  268.4857 C   0  0  0  0  0  0  0  0  0  0  0  0
   94.2454   51.9199  268.1045 C   0  0  0  0  0  0  0  0  0  0  0  0
   94.4590   53.0941  268.8278 C   0  0  0  0  0  0  0  0  0  0  0  0
   92.5073   51.1876  269.6303 C   0  0  0  0  0  0  0  0  0  0  0  0
   90.2493   47.9429  266.1975 N   0  0  0  0  0  0  0  0  0  0  0  0
   89.6938   47.1846  265.1577 C   0  0  0  0  0  0  0  0  0  0  0  0
   90.3836   46.9926  263.9558 C   0  0  0  0  0  0  0  0  0  0  0  0
   89.8604   46.3316  262.8928 N   0  0  0  0  0  0  0  0  0  0  0  0
   88.6069   45.8318  263.0224 C   0  0  0  0  0  0  0  0  0  0  0  0
   87.8451   45.9660  264.1837 C   0  0  0  0  0  0  0  0  0  0  0  0
   88.3928   46.6627  265.2677 C   0  0  0  0  0  0  0  0  0  0  0  0
   87.4640   46.8258  266.7979 S   0  0  0  0  0  0  0  0  0  0  0  0
   87.6173   48.2190  267.2276 O   0  0  0  0  0  0  0  0  0  0  0  0
   86.1278   46.2817  266.5368 O   0  0  0  0  0  0  0  0  0  0  0  0
   88.2895   45.7139  268.0726 C   0  0  0  0  0  0  0  0  0  0  0  0
   92.7122   52.3451  270.3867 C   0  0  0  0  0  0  0  0  0  0  0  0
   93.6742   53.3006  269.9675 C   0  0  0  0  0  0  0  0  0  0  0  0
   93.6619   54.6467  271.0869 S   0  0  0  0  0  0  0  0  0  0  0  0
   92.4847   53.7751  272.0143 C   0  0  0  0  0  0  0  0  0  0  0  0
   92.0618   52.6441  271.5401 N   0  0  0  0  0  0  0  0  0  0  0  0
   92.0618   54.3270  273.1729 N   0  0  0  0  0  0  0  0  0  0  0  0
   92.3879   46.3500  265.8687 H   0  0  0  0  0  0  0  0  0  0  0  0
   91.0253   50.1098  267.3668 H   0  0  0  0  0  0  0  0  0  0  0  0
   97.3733   48.2821  268.2082 H   0  0  0  0  0  0  0  0  0  0  0  0
   96.8769   46.1468  267.1294 H   0  0  0  0  0  0  0  0  0  0  0  0
   95.2084   51.3884  268.0894 H   0  0  0  0  0  0  0  0  0  0  0  0
   93.9824   52.2314  267.0828 H   0  0  0  0  0  0  0  0  0  0  0  0
   95.2014   53.8155  268.5197 H   0  0  0  0  0  0  0  0  0  0  0  0
   91.7600   50.4657  269.9250 H   0  0  0  0  0  0  0  0  0  0  0  0
   90.6373   47.9985  263.5900 H   0  0  0  0  0  0  0  0  0  0  0  0
   91.3062   46.4552  264.2204 H   0  0  0  0  0  0  0  0  0  0  0  0
   88.1763   45.3032  262.1848 H   0  0  0  0  0  0  0  0  0  0  0  0
   86.8539   45.5415  264.2451 H   0  0  0  0  0  0  0  0  0  0  0  0
   87.7485   45.7855  269.0276 H   0  0  0  0  0  0  0  0  0  0  0  0
   88.2707   44.6728  267.7179 H   0  0  0  0  0  0  0  0  0  0  0  0
   89.3322   46.0332  268.2172 H   0  0  0  0  0  0  0  0  0  0  0  0
   92.5033   55.2062  273.3521 H   0  0  0  0  0  0  0  0  0  0  0  0
  1  4  2  0  0  0  0
  1  6  1  0  0  0  0
  1 11  1  0  0  0  0
  2  3  2  0  0  0  0
  2  5  1  0  0  0  0
  3  4  1  0  0  0  0
  3 15  1  0  0  0  0
  5  6  2  0  0  0  0
  5 10  1  0  0  0  0
  6  7  1  0  0  0  0
  7  8  2  0  0  0  0
  8  9  1  0  0  0  0
  9 10  2  0  0  0  0
 11 12  1  0  0  0  0
 11 14  2  0  0  0  0
 12 13  1  0  0  0  0
 13 27  2  0  0  0  0
 14 26  1  0  0  0  0
 15 16  2  0  0  0  0
 16 17  1  0  0  0  0
 16 21  1  0  0  0  0
 17 18  1  0  0  0  0
 18 19  2  0  0  0  0
 19 20  1  0  0  0  0
 20 21  2  0  0  0  0
 21 22  1  0  0  0  0
 22 23  2  0  0  0  0
 22 24  2  0  0  0  0
 22 25  1  0  0  0  0
 26 27  1  0  0  0  0
 26 30  2  0  0  0  0
 27 28  1  0  0  0  0
 28 29  1  0  0  0  0
 29 30  1  0  0  0  0
 29 31  2  0  0  0  0
  2 32  1  0  0  0  0
  4 33  1  0  0  0  0
  8 34  1  0  0  0  0
  9 35  1  0  0  0  0
 12 36  1  0  0  0  0
 12 37  1  0  0  0  0
 13 38  1  0  0  0  0
 14 39  1  0  0  0  0
 17 40  1  0  0  0  0
 17 41  1  0  0  0  0
 19 42  1  0  0  0  0
 20 43  1  0  0  0  0
 25 44  1  0  0  0  0
 25 45  1  0  0  0  0
 25 46  1  0  0  0  0
 31 47  1  0  0  0  0
M  END
> <ID>
67

> <IC50[uM]>
0.031

$$$$
67
  -OEChem-05192314313D
 Structure written by MMmdl.
 47 51  0     0  0  0  0  0  0999 V2000
   93.1004   49.7216  267.7155 C   0  0  0  0  0  0  0  0  0  0  0  0
   92.5890   47.2745  266.3896 C   0  0  0  0  0  0  0  0  0  0  0  0
   91.5683   48.2049  266.5759 C   0  0  0  0  0  0  0  0  0  0  0  0
   91.8300   49.4026  267.2297 C   0  0  0  0  0  0  0  0  0  0  0  0
   93.8878   47.5400  266.8820 C   0  0  0  0  0  0  0  0  0  0  0  0
   94.1599   48.7802  267.5411 C   0  0  0  0  0  0  0  0  0  0  0  0
   95.4145   49.0346  268.0280 N   0  0  0  0  0  0  0  0  0  0  0  0
   96.3713   48.0905  267.8536 C   0  0  0  0  0  0  0  0  0  0  0  0
   96.0910   46.8809  267.2282 C   0  0  0  0  0  0  0  0  0  0  0  0
   94.8599   46.5971  266.7393 N   0  0  0  0  0  0  0  0  0  0  0  0
   93.2846   50.9778  268.4857 C   0  0  0  0  0  0  0  0  0  0  0  0
   94.2454   51.9199  268.1045 C   0  0  0  0  0  0  0  0  0  0  0  0
   94.4590   53.0941  268.8278 C   0  0  0  0  0  0  0  0  0  0  0  0
   92.5073   51.1876  269.6303 C   0  0  0  0  0  0  0  0  0  0  0  0
   90.2493   47.9429  266.1975 N   0  0  0  0  0  0  0  0  0  0  0  0
   89.6938   47.1846  265.1577 C   0  0  0  0  0  0  0  0  0  0  0  0
   90.3836   46.9926  263.9558 C   0  0  0  0  0  0  0  0  0  0  0  0
   89.8604   46.3316  262.8928 N   0  0  0  0  0  0  0  0  0  0  0  0
   88.6069   45.8318  263.0224 C   0  0  0  0  0  0  0  0  0  0  0  0
   87.8451   45.9660  264.1837 C   0  0  0  0  0  0  0  0  0  0  0  0
   88.3928   46.6627  265.2677 C   0  0  0  0  0  0  0  0  0  0  0  0
   87.4640   46.8258  266.7979 S   0  0  0  0  0  0  0  0  0  0  0  0
   87.6173   48.2190  267.2276 O   0  0  0  0  0  0  0  0  0  0  0  0
   86.1278   46.2817  266.5368 O   0  0  0  0  0  0  0  0  0  0  0  0
   88.2895   45.7139  268.0726 C   0  0  0  0  0  0  0  0  0  0  0  0
   92.7122   52.3451  270.3867 C   0  0  0  0  0  0  0  0  0  0  0  0
   93.6742   53.3006  269.9675 C   0  0  0  0  0  0  0  0  0  0  0  0
   93.6619   54.6467  271.0869 S   0  0  0  0  0  0  0  0  0  0  0  0
   92.4847   53.7751  272.0143 C   0  0  0  0  0  0  0  0  0  0  0  0
   92.0618   52.6441  271.5401 N   0  0  0  0  0  0  0  0  0  0  0  0
   92.0618   54.3270  273.1729 N   0  0  0  0  0  0  0  0  0  0  0  0
   92.3879   46.3500  265.8687 H   0  0  0  0  0  0  0  0  0  0  0  0
   91.0253   50.1098  267.3668 H   0  0  0  0  0  0  0  0  0  0  0  0
   97.3733   48.2821  268.2082 H   0  0  0  0  0  0  0  0  0  0  0  0
   96.8769   46.1468  267.1294 H   0  0  0  0  0  0  0  0  0  0  0  0
   94.8406   51.7329  267.2229 H   0  0  0  0  0  0  0  0  0  0  0  0
   95.2014   53.8155  268.5197 H   0  0  0  0  0  0  0  0  0  0  0  0
   91.4554   51.1950  269.3085 H   0  0  0  0  0  0  0  0  0  0  0  0
   92.6803   50.3312  270.2986 H   0  0  0  0  0  0  0  0  0  0  0  0
   90.6373   47.9985  263.5900 H   0  0  0  0  0  0  0  0  0  0  0  0
   91.3062   46.4552  264.2204 H   0  0  0  0  0  0  0  0  0  0  0  0
   88.1763   45.3032  262.1848 H   0  0  0  0  0  0  0  0  0  0  0  0
   86.8539   45.5415  264.2451 H   0  0  0  0  0  0  0  0  0  0  0  0
   87.7485   45.7855  269.0276 H   0  0  0  0  0  0  0  0  0  0  0  0
   88.2707   44.6728  267.7179 H   0  0  0  0  0  0  0  0  0  0  0  0
   89.3322   46.0332  268.2172 H   0  0  0  0  0  0  0  0  0  0  0  0
   92.5033   55.2062  273.3521 H   0  0  0  0  0  0  0  0  0  0  0  0
  1  4  2  0  0  0  0
  1  6  1  0  0  0  0
  1 11  1  0  0  0  0
  2  3  2  0  0  0  0
  2  5  1  0  0  0  0
  3  4  1  0  0  0  0
  3 15  1  0  0  0  0
  5  6  2  0  0  0  0
  5 10  1  0  0  0  0
  6  7  1  0  0  0  0
  7  8  2  0  0  0  0
  8  9  1  0  0  0  0
  9 10  2  0  0  0  0
 11 12  2  0  0  0  0
 11 14  1  0  0  0  0
 12 13  1  0  0  0  0
 13 27  2  0  0  0  0
 14 26  1  0  0  0  0
 15 16  2  0  0  0  0
 16 17  1  0  0  0  0
 16 21  1  0  0  0  0
 17 18  1  0  0  0  0
 18 19  2  0  0  0  0
 19 20  1  0  0  0  0
 20 21  2  0  0  0  0
 21 22  1  0  0  0  0
 22 23  2  0  0  0  0
 22 24  2  0  0  0  0
 22 25  1  0  0  0  0
 26 27  1  0  0  0  0
 26 30  2  0  0  0  0
 27 28  1  0  0  0  0
 28 29  1  0  0  0  0
 29 30  1  0  0  0  0
 29 31  2  0  0  0  0
  2 32  1  0  0  0  0
  4 33  1  0  0  0  0
  8 34  1  0  0  0  0
  9 35  1  0  0  0  0
 12 36  1  0  0  0  0
 13 37  1  0  0  0  0
 14 38  1  0  0  0  0
 14 39  1  0  0  0  0
 17 40  1  0  0  0  0
 17 41  1  0  0  0  0
 19 42  1  0  0  0  0
 20 43  1  0  0  0  0
 25 44  1  0  0  0  0
 25 45  1  0  0  0  0
 25 46  1  0  0  0  0
 31 47  1  0  0  0  0
M  END
> <ID>
67

> <IC50[uM]>
0.031

$$$$
67
  -OEChem-05192314313D
 Structure written by MMmdl.
 47 51  0     1  0  0  0  0  0999 V2000
   93.1004   49.7216  267.7155 C   0  0  0  0  0  0  0  0  0  0  0  0
   92.5890   47.2745  266.3896 C   0  0  0  0  0  0  0  0  0  0  0  0
   91.5683   48.2049  266.5759 C   0  0  0  0  0  0  0  0  0  0  0  0
   91.8300   49.4026  267.2297 C   0  0  0  0  0  0  0  0  0  0  0  0
   93.8878   47.5400  266.8820 C   0  0  0  0  0  0  0  0  0  0  0  0
   94.1599   48.7802  267.5411 C   0  0  3  0  0  0  0  0  0  0  0  0
   95.4145   49.0346  268.0280 N   0  0  0  0  0  0  0  0  0  0  0  0
   96.3713   48.0905  267.8536 C   0  0  0  0  0  0  0  0  0  0  0  0
   96.0910   46.8809  267.2282 C   0  0  0  0  0  0  0  0  0  0  0  0
   94.8599   46.5971  266.7393 N   0  0  0  0  0  0  0  0  0  0  0  0
   93.2846   50.9778  268.4857 C   0  0  0  0  0  0  0  0  0  0  0  0
   94.2454   51.9199  268.1045 C   0  0  0  0  0  0  0  0  0  0  0  0
   94.4590   53.0941  268.8278 C   0  0  0  0  0  0  0  0  0  0  0  0
   92.5073   51.1876  269.6303 C   0  0  0  0  0  0  0  0  0  0  0  0
   90.2493   47.9429  266.1975 N   0  0  0  0  0  0  0  0  0  0  0  0
   89.6938   47.1846  265.1577 C   0  0  0  0  0  0  0  0  0  0  0  0
   90.3836   46.9926  263.9558 C   0  0  0  0  0  0  0  0  0  0  0  0
   89.8604   46.3316  262.8928 N   0  0  0  0  0  0  0  0  0  0  0  0
   88.6069   45.8318  263.0224 C   0  0  0  0  0  0  0  0  0  0  0  0
   87.8451   45.9660  264.1837 C   0  0  0  0  0  0  0  0  0  0  0  0
   88.3928   46.6627  265.2677 C   0  0  0  0  0  0  0  0  0  0  0  0
   87.4640   46.8258  266.7979 S   0  0  0  0  0  0  0  0  0  0  0  0
   87.6173   48.2190  267.2276 O   0  0  0  0  0  0  0  0  0  0  0  0
   86.1278   46.2817  266.5368 O   0  0  0  0  0  0  0  0  0  0  0  0
   88.2895   45.7139  268.0726 C   0  0  0  0  0  0  0  0  0  0  0  0
   92.7122   52.3451  270.3867 C   0  0  0  0  0  0  0  0  0  0  0  0
   93.6742   53.3006  269.9675 C   0  0  3  0  0  0  0  0  0  0  0  0
   93.6619   54.6467  271.0869 S   0  0  0  0  0  0  0  0  0  0  0  0
   92.4847   53.7751  272.0143 C   0  0  0  0  0  0  0  0  0  0  0  0
   92.0618   52.6441  271.5401 N   0  0  0  0  0  0  0  0  0  0  0  0
   92.0618   54.3270  273.1729 N   0  0  0  0  0  0  0  0  0  0  0  0
   92.3879   46.3500  265.8687 H   0  0  0  0  0  0  0  0  0  0  0  0
   91.0253   50.1098  267.3668 H   0  0  0  0  0  0  0  0  0  0  0  0
   94.4273   49.2439  266.5801 H   0  0  0  0  0  0  0  0  0  0  0  0
   97.3733   48.2821  268.2082 H   0  0  0  0  0  0  0  0  0  0  0  0
   96.8769   46.1468  267.1294 H   0  0  0  0  0  0  0  0  0  0  0  0
   94.8406   51.7329  267.2229 H   0  0  0  0  0  0  0  0  0  0  0  0
   95.2014   53.8155  268.5197 H   0  0  0  0  0  0  0  0  0  0  0  0
   91.7600   50.4657  269.9250 H   0  0  0  0  0  0  0  0  0  0  0  0
   91.3838   47.3909  263.8698 H   0  0  0  0  0  0  0  0  0  0  0  0
   88.1763   45.3032  262.1848 H   0  0  0  0  0  0  0  0  0  0  0  0
   86.8539   45.5415  264.2451 H   0  0  0  0  0  0  0  0  0  0  0  0
   87.7485   45.7855  269.0276 H   0  0  0  0  0  0  0  0  0  0  0  0
   88.2707   44.6728  267.7179 H   0  0  0  0  0  0  0  0  0  0  0  0
   89.3322   46.0332  268.2172 H   0  0  0  0  0  0  0  0  0  0  0  0
   92.9114   53.8021  269.3537 H   0  0  0  0  0  0  0  0  0  0  0  0
   92.5033   55.2062  273.3521 H   0  0  0  0  0  0  0  0  0  0  0  0
  1  4  2  0  0  0  0
  1  6  1  0  0  0  0
  1 11  1  0  0  0  0
  2  3  1  0  0  0  0
  2  5  2  0  0  0  0
  3  4  1  0  0  0  0
  3 15  2  3  0  0  0
  5  6  1  0  0  0  0
  5 10  1  0  0  0  0
  6  7  1  0  0  0  0
  7  8  2  0  0  0  0
  8  9  1  0  0  0  0
  9 10  2  0  0  0  0
 11 12  1  0  0  0  0
 11 14  2  0  0  0  0
 12 13  2  0  0  0  0
 13 27  1  0  0  0  0
 14 26  1  0  0  0  0
 15 16  1  0  0  0  0
 16 17  2  0  0  0  0
 16 21  1  0  0  0  0
 17 18  1  0  0  0  0
 18 19  2  0  0  0  0
 19 20  1  0  0  0  0
 20 21  2  0  0  0  0
 21 22  1  0  0  0  0
 22 23  2  0  0  0  0
 22 24  2  0  0  0  0
 22 25  1  0  0  0  0
 26 27  1  0  0  0  0
 26 30  2  0  0  0  0
 27 28  1  0  0  0  0
 28 29  1  0  0  0  0
 29 30  1  0  0  0  0
 29 31  2  0  0  0  0
  2 32  1  0  0  0  0
  4 33  1  0  0  0  0
  6 34  1  0  0  0  0
  8 35  1  0  0  0  0
  9 36  1  0  0  0  0
 12 37  1  0  0  0  0
 13 38  1  0  0  0  0
 14 39  1  0  0  0  0
 17 40  1  0  0  0  0
 19 41  1  0  0  0  0
 20 42  1  0  0  0  0
 25 43  1  0  0  0  0
 25 44  1  0  0  0  0
 25 45  1  0  0  0  0
 27 46  1  0  0  0  0
 31 47  1  0  0  0  0
M  END
> <ID>
67

> <IC50[uM]>
0.031

$$$$
67
  -OEChem-05192314313D
 Structure written by MMmdl.
 47 51  0     1  0  0  0  0  0999 V2000
   93.1004   49.7216  267.7155 C   0  0  0  0  0  0  0  0  0  0  0  0
   92.5890   47.2745  266.3896 C   0  0  0  0  0  0  0  0  0  0  0  0
   91.5683   48.2049  266.5759 C   0  0  0  0  0  0  0  0  0  0  0  0
   91.8300   49.4026  267.2297 C   0  0  0  0  0  0  0  0  0  0  0  0
   93.8878   47.5400  266.8820 C   0  0  0  0  0  0  0  0  0  0  0  0
   94.1599   48.7802  267.5411 C   0  0  3  0  0  0  0  0  0  0  0  0
   95.4145   49.0346  268.0280 N   0  0  0  0  0  0  0  0  0  0  0  0
   96.3713   48.0905  267.8536 C   0  0  0  0  0  0  0  0  0  0  0  0
   96.0910   46.8809  267.2282 C   0  0  0  0  0  0  0  0  0  0  0  0
   94.8599   46.5971  266.7393 N   0  0  0  0  0  0  0  0  0  0  0  0
   93.2846   50.9778  268.4857 C   0  0  0  0  0  0  0  0  0  0  0  0
   94.2454   51.9199  268.1045 C   0  0  0  0  0  0  0  0  0  0  0  0
   94.4590   53.0941  268.8278 C   0  0  0  0  0  0  0  0  0  0  0  0
   92.5073   51.1876  269.6303 C   0  0  0  0  0  0  0  0  0  0  0  0
   90.2493   47.9429  266.1975 N   0  0  0  0  0  0  0  0  0  0  0  0
   89.6938   47.1846  265.1577 C   0  0  0  0  0  0  0  0  0  0  0  0
   90.3836   46.9926  263.9558 C   0  0  0  0  0  0  0  0  0  0  0  0
   89.8604   46.3316  262.8928 N   0  0  0  0  0  0  0  0  0  0  0  0
   88.6069   45.8318  263.0224 C   0  0  0  0  0  0  0  0  0  0  0  0
   87.8451   45.9660  264.1837 C   0  0  0  0  0  0  0  0  0  0  0  0
   88.3928   46.6627  265.2677 C   0  0  0  0  0  0  0  0  0  0  0  0
   87.4640   46.8258  266.7979 S   0  0  0  0  0  0  0  0  0  0  0  0
   87.6173   48.2190  267.2276 O   0  0  0  0  0  0  0  0  0  0  0  0
   86.1278   46.2817  266.5368 O   0  0  0  0  0  0  0  0  0  0  0  0
   88.2895   45.7139  268.0726 C   0  0  0  0  0  0  0  0  0  0  0  0
   92.7122   52.3451  270.3867 C   0  0  0  0  0  0  0  0  0  0  0  0
   93.6742   53.3006  269.9675 C   0  0  0  0  0  0  0  0  0  0  0  0
   93.6619   54.6467  271.0869 S   0  0  0  0  0  0  0  0  0  0  0  0
   92.4847   53.7751  272.0143 C   0  0  0  0  0  0  0  0  0  0  0  0
   92.0618   52.6441  271.5401 N   0  0  0  0  0  0  0  0  0  0  0  0
   92.0618   54.3270  273.1729 N   0  0  0  0  0  0  0  0  0  0  0  0
   92.3879   46.3500  265.8687 H   0  0  0  0  0  0  0  0  0  0  0  0
   91.0253   50.1098  267.3668 H   0  0  0  0  0  0  0  0  0  0  0  0
   94.4273   49.2439  266.5801 H   0  0  0  0  0  0  0  0  0  0  0  0
   97.3733   48.2821  268.2082 H   0  0  0  0  0  0  0  0  0  0  0  0
   96.8769   46.1468  267.1294 H   0  0  0  0  0  0  0  0  0  0  0  0
   95.2084   51.3884  268.0894 H   0  0  0  0  0  0  0  0  0  0  0  0
   93.9824   52.2314  267.0828 H   0  0  0  0  0  0  0  0  0  0  0  0
   95.2014   53.8155  268.5197 H   0  0  0  0  0  0  0  0  0  0  0  0
   91.7600   50.4657  269.9250 H   0  0  0  0  0  0  0  0  0  0  0  0
   91.3838   47.3909  263.8698 H   0  0  0  0  0  0  0  0  0  0  0  0
   88.1763   45.3032  262.1848 H   0  0  0  0  0  0  0  0  0  0  0  0
   86.8539   45.5415  264.2451 H   0  0  0  0  0  0  0  0  0  0  0  0
   87.7485   45.7855  269.0276 H   0  0  0  0  0  0  0  0  0  0  0  0
   88.2707   44.6728  267.7179 H   0  0  0  0  0  0  0  0  0  0  0  0
   89.3322   46.0332  268.2172 H   0  0  0  0  0  0  0  0  0  0  0  0
   92.5033   55.2062  273.3521 H   0  0  0  0  0  0  0  0  0  0  0  0
  1  4  2  0  0  0  0
  1  6  1  0  0  0  0
  1 11  1  0  0  0  0
  2  3  1  0  0  0  0
  2  5  2  0  0  0  0
  3  4  1  0  0  0  0
  3 15  2  3  0  0  0
  5  6  1  0  0  0  0
  5 10  1  0  0  0  0
  6  7  1  0  0  0  0
  7  8  2  0  0  0  0
  8  9  1  0  0  0  0
  9 10  2  0  0  0  0
 11 12  1  0  0  0  0
 11 14  2  0  0  0  0
 12 13  1  0  0  0  0
 13 27  2  0  0  0  0
 14 26  1  0  0  0  0
 15 16  1  0  0  0  0
 16 17  2  0  0  0  0
 16 21  1  0  0  0  0
 17 18  1  0  0  0  0
 18 19  2  0  0  0  0
 19 20  1  0  0  0  0
 20 21  2  0  0  0  0
 21 22  1  0  0  0  0
 22 23  2  0  0  0  0
 22 24  2  0  0  0  0
 22 25  1  0  0  0  0
 26 27  1  0  0  0  0
 26 30  2  0  0  0  0
 27 28  1  0  0  0  0
 28 29  1  0  0  0  0
 29 30  1  0  0  0  0
 29 31  2  0  0  0  0
  2 32  1  0  0  0  0
  4 33  1  0  0  0  0
  6 34  1  0  0  0  0
  8 35  1  0  0  0  0
  9 36  1  0  0  0  0
 12 37  1  0  0  0  0
 12 38  1  0  0  0  0
 13 39  1  0  0  0  0
 14 40  1  0  0  0  0
 17 41  1  0  0  0  0
 19 42  1  0  0  0  0
 20 43  1  0  0  0  0
 25 44  1  0  0  0  0
 25 45  1  0  0  0  0
 25 46  1  0  0  0  0
 31 47  1  0  0  0  0
M  END
> <ID>
67

> <IC50[uM]>
0.031

$$$$
67
  -OEChem-05192314313D
 Structure written by MMmdl.
 47 51  0     1  0  0  0  0  0999 V2000
   93.1004   49.7216  267.7155 C   0  0  0  0  0  0  0  0  0  0  0  0
   92.5890   47.2745  266.3896 C   0  0  0  0  0  0  0  0  0  0  0  0
   91.5683   48.2049  266.5759 C   0  0  0  0  0  0  0  0  0  0  0  0
   91.8300   49.4026  267.2297 C   0  0  0  0  0  0  0  0  0  0  0  0
   93.8878   47.5400  266.8820 C   0  0  0  0  0  0  0  0  0  0  0  0
   94.1599   48.7802  267.5411 C   0  0  3  0  0  0  0  0  0  0  0  0
   95.4145   49.0346  268.0280 N   0  0  0  0  0  0  0  0  0  0  0  0
   96.3713   48.0905  267.8536 C   0  0  0  0  0  0  0  0  0  0  0  0
   96.0910   46.8809  267.2282 C   0  0  0  0  0  0  0  0  0  0  0  0
   94.8599   46.5971  266.7393 N   0  0  0  0  0  0  0  0  0  0  0  0
   93.2846   50.9778  268.4857 C   0  0  0  0  0  0  0  0  0  0  0  0
   94.2454   51.9199  268.1045 C   0  0  0  0  0  0  0  0  0  0  0  0
   94.4590   53.0941  268.8278 C   0  0  0  0  0  0  0  0  0  0  0  0
   92.5073   51.1876  269.6303 C   0  0  0  0  0  0  0  0  0  0  0  0
   90.2493   47.9429  266.1975 N   0  0  0  0  0  0  0  0  0  0  0  0
   89.6938   47.1846  265.1577 C   0  0  0  0  0  0  0  0  0  0  0  0
   90.3836   46.9926  263.9558 C   0  0  0  0  0  0  0  0  0  0  0  0
   89.8604   46.3316  262.8928 N   0  0  0  0  0  0  0  0  0  0  0  0
   88.6069   45.8318  263.0224 C   0  0  0  0  0  0  0  0  0  0  0  0
   87.8451   45.9660  264.1837 C   0  0  0  0  0  0  0  0  0  0  0  0
   88.3928   46.6627  265.2677 C   0  0  0  0  0  0  0  0  0  0  0  0
   87.4640   46.8258  266.7979 S   0  0  0  0  0  0  0  0  0  0  0  0
   87.6173   48.2190  267.2276 O   0  0  0  0  0  0  0  0  0  0  0  0
   86.1278   46.2817  266.5368 O   0  0  0  0  0  0  0  0  0  0  0  0
   88.2895   45.7139  268.0726 C   0  0  0  0  0  0  0  0  0  0  0  0
   92.7122   52.3451  270.3867 C   0  0  0  0  0  0  0  0  0  0  0  0
   93.6742   53.3006  269.9675 C   0  0  0  0  0  0  0  0  0  0  0  0
   93.6619   54.6467  271.0869 S   0  0  0  0  0  0  0  0  0  0  0  0
   92.4847   53.7751  272.0143 C   0  0  0  0  0  0  0  0  0  0  0  0
   92.0618   52.6441  271.5401 N   0  0  0  0  0  0  0  0  0  0  0  0
   92.0618   54.3270  273.1729 N   0  0  0  0  0  0  0  0  0  0  0  0
   92.3879   46.3500  265.8687 H   0  0  0  0  0  0  0  0  0  0  0  0
   91.0253   50.1098  267.3668 H   0  0  0  0  0  0  0  0  0  0  0  0
   94.4273   49.2439  266.5801 H   0  0  0  0  0  0  0  0  0  0  0  0
   97.3733   48.2821  268.2082 H   0  0  0  0  0  0  0  0  0  0  0  0
   96.8769   46.1468  267.1294 H   0  0  0  0  0  0  0  0  0  0  0  0
   94.8406   51.7329  267.2229 H   0  0  0  0  0  0  0  0  0  0  0  0
   95.2014   53.8155  268.5197 H   0  0  0  0  0  0  0  0  0  0  0  0
   91.4554   51.1950  269.3085 H   0  0  0  0  0  0  0  0  0  0  0  0
   92.6803   50.3312  270.2986 H   0  0  0  0  0  0  0  0  0  0  0  0
   91.3838   47.3909  263.8698 H   0  0  0  0  0  0  0  0  0  0  0  0
   88.1763   45.3032  262.1848 H   0  0  0  0  0  0  0  0  0  0  0  0
   86.8539   45.5415  264.2451 H   0  0  0  0  0  0  0  0  0  0  0  0
   87.7485   45.7855  269.0276 H   0  0  0  0  0  0  0  0  0  0  0  0
   88.2707   44.6728  267.7179 H   0  0  0  0  0  0  0  0  0  0  0  0
   89.3322   46.0332  268.2172 H   0  0  0  0  0  0  0  0  0  0  0  0
   92.5033   55.2062  273.3521 H   0  0  0  0  0  0  0  0  0  0  0  0
  1  4  2  0  0  0  0
  1  6  1  0  0  0  0
  1 11  1  0  0  0  0
  2  3  1  0  0  0  0
  2  5  2  0  0  0  0
  3  4  1  0  0  0  0
  3 15  2  3  0  0  0
  5  6  1  0  0  0  0
  5 10  1  0  0  0  0
  6  7  1  0  0  0  0
  7  8  2  0  0  0  0
  8  9  1  0  0  0  0
  9 10  2  0  0  0  0
 11 12  2  0  0  0  0
 11 14  1  0  0  0  0
 12 13  1  0  0  0  0
 13 27  2  0  0  0  0
 14 26  1  0  0  0  0
 15 16  1  0  0  0  0
 16 17  2  0  0  0  0
 16 21  1  0  0  0  0
 17 18  1  0  0  0  0
 18 19  2  0  0  0  0
 19 20  1  0  0  0  0
 20 21  2  0  0  0  0
 21 22  1  0  0  0  0
 22 23  2  0  0  0  0
 22 24  2  0  0  0  0
 22 25  1  0  0  0  0
 26 27  1  0  0  0  0
 26 30  2  0  0  0  0
 27 28  1  0  0  0  0
 28 29  1  0  0  0  0
 29 30  1  0  0  0  0
 29 31  2  0  0  0  0
  2 32  1  0  0  0  0
  4 33  1  0  0  0  0
  6 34  1  0  0  0  0
  8 35  1  0  0  0  0
  9 36  1  0  0  0  0
 12 37  1  0  0  0  0
 13 38  1  0  0  0  0
 14 39  1  0  0  0  0
 14 40  1  0  0  0  0
 17 41  1  0  0  0  0
 19 42  1  0  0  0  0
 20 43  1  0  0  0  0
 25 44  1  0  0  0  0
 25 45  1  0  0  0  0
 25 46  1  0  0  0  0
 31 47  1  0  0  0  0
M  END
> <ID>
67

> <IC50[uM]>
0.031

$$$$
67
  -OEChem-05192314313D
 Structure written by MMmdl.
 47 51  0     1  0  0  0  0  0999 V2000
   93.1004   49.7216  267.7155 C   0  0  0  0  0  0  0  0  0  0  0  0
   92.5890   47.2745  266.3896 C   0  0  0  0  0  0  0  0  0  0  0  0
   91.5683   48.2049  266.5759 C   0  0  0  0  0  0  0  0  0  0  0  0
   91.8300   49.4026  267.2297 C   0  0  0  0  0  0  0  0  0  0  0  0
   93.8878   47.5400  266.8820 C   0  0  0  0  0  0  0  0  0  0  0  0
   94.1599   48.7802  267.5411 C   0  0  0  0  0  0  0  0  0  0  0  0
   95.4145   49.0346  268.0280 N   0  0  0  0  0  0  0  0  0  0  0  0
   96.3713   48.0905  267.8536 C   0  0  0  0  0  0  0  0  0  0  0  0
   96.0910   46.8809  267.2282 C   0  0  0  0  0  0  0  0  0  0  0  0
   94.8599   46.5971  266.7393 N   0  0  0  0  0  0  0  0  0  0  0  0
   93.2846   50.9778  268.4857 C   0  0  0  0  0  0  0  0  0  0  0  0
   94.2454   51.9199  268.1045 C   0  0  0  0  0  0  0  0  0  0  0  0
   94.4590   53.0941  268.8278 C   0  0  0  0  0  0  0  0  0  0  0  0
   92.5073   51.1876  269.6303 C   0  0  0  0  0  0  0  0  0  0  0  0
   90.2493   47.9429  266.1975 N   0  0  0  0  0  0  0  0  0  0  0  0
   89.6938   47.1846  265.1577 C   0  0  0  0  0  0  0  0  0  0  0  0
   90.3836   46.9926  263.9558 C   0  0  0  0  0  0  0  0  0  0  0  0
   89.8604   46.3316  262.8928 N   0  0  0  0  0  0  0  0  0  0  0  0
   88.6069   45.8318  263.0224 C   0  0  0  0  0  0  0  0  0  0  0  0
   87.8451   45.9660  264.1837 C   0  0  0  0  0  0  0  0  0  0  0  0
   88.3928   46.6627  265.2677 C   0  0  0  0  0  0  0  0  0  0  0  0
   87.4640   46.8258  266.7979 S   0  0  0  0  0  0  0  0  0  0  0  0
   87.6173   48.2190  267.2276 O   0  0  0  0  0  0  0  0  0  0  0  0
   86.1278   46.2817  266.5368 O   0  0  0  0  0  0  0  0  0  0  0  0
   88.2895   45.7139  268.0726 C   0  0  0  0  0  0  0  0  0  0  0  0
   92.7122   52.3451  270.3867 C   0  0  0  0  0  0  0  0  0  0  0  0
   93.6742   53.3006  269.9675 C   0  0  3  0  0  0  0  0  0  0  0  0
   93.6619   54.6467  271.0869 S   0  0  0  0  0  0  0  0  0  0  0  0
   92.4847   53.7751  272.0143 C   0  0  0  0  0  0  0  0  0  0  0  0
   92.0618   52.6441  271.5401 N   0  0  0  0  0  0  0  0  0  0  0  0
   92.0618   54.3270  273.1729 N   0  0  0  0  0  0  0  0  0  0  0  0
   92.3879   46.3500  265.8687 H   0  0  0  0  0  0  0  0  0  0  0  0
   91.0253   50.1098  267.3668 H   0  0  0  0  0  0  0  0  0  0  0  0
   97.1725   48.5647  267.2678 H   0  0  0  0  0  0  0  0  0  0  0  0
   96.7485   47.8416  268.8565 H   0  0  0  0  0  0  0  0  0  0  0  0
   96.8769   46.1468  267.1294 H   0  0  0  0  0  0  0  0  0  0  0  0
   94.8406   51.7329  267.2229 H   0  0  0  0  0  0  0  0  0  0  0  0
   95.2014   53.8155  268.5197 H   0  0  0  0  0  0  0  0  0  0  0  0
   91.7600   50.4657  269.9250 H   0  0  0  0  0  0  0  0  0  0  0  0
   91.3838   47.3909  263.8698 H   0  0  0  0  0  0  0  0  0  0  0  0
   88.1763   45.3032  262.1848 H   0  0  0  0  0  0  0  0  0  0  0  0
   86.8539   45.5415  264.2451 H   0  0  0  0  0  0  0  0  0  0  0  0
   87.7485   45.7855  269.0276 H   0  0  0  0  0  0  0  0  0  0  0  0
   88.2707   44.6728  267.7179 H   0  0  0  0  0  0  0  0  0  0  0  0
   89.3322   46.0332  268.2172 H   0  0  0  0  0  0  0  0  0  0  0  0
   92.9114   53.8021  269.3537 H   0  0  0  0  0  0  0  0  0  0  0  0
   92.5033   55.2062  273.3521 H   0  0  0  0  0  0  0  0  0  0  0  0
  1  4  2  0  0  0  0
  1  6  1  0  0  0  0
  1 11  1  0  0  0  0
  2  3  1  0  0  0  0
  2  5  2  0  0  0  0
  3  4  1  0  0  0  0
  3 15  2  3  0  0  0
  5  6  1  0  0  0  0
  5 10  1  0  0  0  0
  6  7  2  0  0  0  0
  7  8  1  0  0  0  0
  8  9  1  0  0  0  0
  9 10  2  0  0  0  0
 11 12  1  0  0  0  0
 11 14  2  0  0  0  0
 12 13  2  0  0  0  0
 13 27  1  0  0  0  0
 14 26  1  0  0  0  0
 15 16  1  0  0  0  0
 16 17  2  0  0  0  0
 16 21  1  0  0  0  0
 17 18  1  0  0  0  0
 18 19  2  0  0  0  0
 19 20  1  0  0  0  0
 20 21  2  0  0  0  0
 21 22  1  0  0  0  0
 22 23  2  0  0  0  0
 22 24  2  0  0  0  0
 22 25  1  0  0  0  0
 26 27  1  0  0  0  0
 26 30  2  0  0  0  0
 27 28  1  0  0  0  0
 28 29  1  0  0  0  0
 29 30  1  0  0  0  0
 29 31  2  0  0  0  0
  2 32  1  0  0  0  0
  4 33  1  0  0  0  0
  8 34  1  0  0  0  0
  8 35  1  0  0  0  0
  9 36  1  0  0  0  0
 12 37  1  0  0  0  0
 13 38  1  0  0  0  0
 14 39  1  0  0  0  0
 17 40  1  0  0  0  0
 19 41  1  0  0  0  0
 20 42  1  0  0  0  0
 25 43  1  0  0  0  0
 25 44  1  0  0  0  0
 25 45  1  0  0  0  0
 27 46  1  0  0  0  0
 31 47  1  0  0  0  0
M  END
> <ID>
67

> <IC50[uM]>
0.031

$$$$
67
  -OEChem-05192314313D
 Structure written by MMmdl.
 47 51  0     0  0  0  0  0  0999 V2000
   93.1004   49.7216  267.7155 C   0  0  0  0  0  0  0  0  0  0  0  0
   92.5890   47.2745  266.3896 C   0  0  0  0  0  0  0  0  0  0  0  0
   91.5683   48.2049  266.5759 C   0  0  0  0  0  0  0  0  0  0  0  0
   91.8300   49.4026  267.2297 C   0  0  0  0  0  0  0  0  0  0  0  0
   93.8878   47.5400  266.8820 C   0  0  0  0  0  0  0  0  0  0  0  0
   94.1599   48.7802  267.5411 C   0  0  0  0  0  0  0  0  0  0  0  0
   95.4145   49.0346  268.0280 N   0  0  0  0  0  0  0  0  0  0  0  0
   96.3713   48.0905  267.8536 C   0  0  0  0  0  0  0  0  0  0  0  0
   96.0910   46.8809  267.2282 C   0  0  0  0  0  0  0  0  0  0  0  0
   94.8599   46.5971  266.7393 N   0  0  0  0  0  0  0  0  0  0  0  0
   93.2846   50.9778  268.4857 C   0  0  0  0  0  0  0  0  0  0  0  0
   94.2454   51.9199  268.1045 C   0  0  0  0  0  0  0  0  0  0  0  0
   94.4590   53.0941  268.8278 C   0  0  0  0  0  0  0  0  0  0  0  0
   92.5073   51.1876  269.6303 C   0  0  0  0  0  0  0  0  0  0  0  0
   90.2493   47.9429  266.1975 N   0  0  0  0  0  0  0  0  0  0  0  0
   89.6938   47.1846  265.1577 C   0  0  0  0  0  0  0  0  0  0  0  0
   90.3836   46.9926  263.9558 C   0  0  0  0  0  0  0  0  0  0  0  0
   89.8604   46.3316  262.8928 N   0  0  0  0  0  0  0  0  0  0  0  0
   88.6069   45.8318  263.0224 C   0  0  0  0  0  0  0  0  0  0  0  0
   87.8451   45.9660  264.1837 C   0  0  0  0  0  0  0  0  0  0  0  0
   88.3928   46.6627  265.2677 C   0  0  0  0  0  0  0  0  0  0  0  0
   87.4640   46.8258  266.7979 S   0  0  0  0  0  0  0  0  0  0  0  0
   87.6173   48.2190  267.2276 O   0  0  0  0  0  0  0  0  0  0  0  0
   86.1278   46.2817  266.5368 O   0  0  0  0  0  0  0  0  0  0  0  0
   88.2895   45.7139  268.0726 C   0  0  0  0  0  0  0  0  0  0  0  0
   92.7122   52.3451  270.3867 C   0  0  0  0  0  0  0  0  0  0  0  0
   93.6742   53.3006  269.9675 C   0  0  0  0  0  0  0  0  0  0  0  0
   93.6619   54.6467  271.0869 S   0  0  0  0  0  0  0  0  0  0  0  0
   92.4847   53.7751  272.0143 C   0  0  0  0  0  0  0  0  0  0  0  0
   92.0618   52.6441  271.5401 N   0  0  0  0  0  0  0  0  0  0  0  0
   92.0618   54.3270  273.1729 N   0  0  0  0  0  0  0  0  0  0  0  0
   92.3879   46.3500  265.8687 H   0  0  0  0  0  0  0  0  0  0  0  0
   91.0253   50.1098  267.3668 H   0  0  0  0  0  0  0  0  0  0  0  0
   97.1725   48.5647  267.2678 H   0  0  0  0  0  0  0  0  0  0  0  0
   96.7485   47.8416  268.8565 H   0  0  0  0  0  0  0  0  0  0  0  0
   96.8769   46.1468  267.1294 H   0  0  0  0  0  0  0  0  0  0  0  0
   95.2084   51.3884  268.0894 H   0  0  0  0  0  0  0  0  0  0  0  0
   93.9824   52.2314  267.0828 H   0  0  0  0  0  0  0  0  0  0  0  0
   95.2014   53.8155  268.5197 H   0  0  0  0  0  0  0  0  0  0  0  0
   91.7600   50.4657  269.9250 H   0  0  0  0  0  0  0  0  0  0  0  0
   91.3838   47.3909  263.8698 H   0  0  0  0  0  0  0  0  0  0  0  0
   88.1763   45.3032  262.1848 H   0  0  0  0  0  0  0  0  0  0  0  0
   86.8539   45.5415  264.2451 H   0  0  0  0  0  0  0  0  0  0  0  0
   87.7485   45.7855  269.0276 H   0  0  0  0  0  0  0  0  0  0  0  0
   88.2707   44.6728  267.7179 H   0  0  0  0  0  0  0  0  0  0  0  0
   89.3322   46.0332  268.2172 H   0  0  0  0  0  0  0  0  0  0  0  0
   92.5033   55.2062  273.3521 H   0  0  0  0  0  0  0  0  0  0  0  0
  1  4  2  0  0  0  0
  1  6  1  0  0  0  0
  1 11  1  0  0  0  0
  2  3  1  0  0  0  0
  2  5  2  0  0  0  0
  3  4  1  0  0  0  0
  3 15  2  3  0  0  0
  5  6  1  0  0  0  0
  5 10  1  0  0  0  0
  6  7  2  0  0  0  0
  7  8  1  0  0  0  0
  8  9  1  0  0  0  0
  9 10  2  0  0  0  0
 11 12  1  0  0  0  0
 11 14  2  0  0  0  0
 12 13  1  0  0  0  0
 13 27  2  0  0  0  0
 14 26  1  0  0  0  0
 15 16  1  0  0  0  0
 16 17  2  0  0  0  0
 16 21  1  0  0  0  0
 17 18  1  0  0  0  0
 18 19  2  0  0  0  0
 19 20  1  0  0  0  0
 20 21  2  0  0  0  0
 21 22  1  0  0  0  0
 22 23  2  0  0  0  0
 22 24  2  0  0  0  0
 22 25  1  0  0  0  0
 26 27  1  0  0  0  0
 26 30  2  0  0  0  0
 27 28  1  0  0  0  0
 28 29  1  0  0  0  0
 29 30  1  0  0  0  0
 29 31  2  0  0  0  0
  2 32  1  0  0  0  0
  4 33  1  0  0  0  0
  8 34  1  0  0  0  0
  8 35  1  0  0  0  0
  9 36  1  0  0  0  0
 12 37  1  0  0  0  0
 12 38  1  0  0  0  0
 13 39  1  0  0  0  0
 14 40  1  0  0  0  0
 17 41  1  0  0  0  0
 19 42  1  0  0  0  0
 20 43  1  0  0  0  0
 25 44  1  0  0  0  0
 25 45  1  0  0  0  0
 25 46  1  0  0  0  0
 31 47  1  0  0  0  0
M  END
> <ID>
67

> <IC50[uM]>
0.031

$$$$
67
  -OEChem-05192314313D
 Structure written by MMmdl.
 47 51  0     0  0  0  0  0  0999 V2000
   93.1004   49.7216  267.7155 C   0  0  0  0  0  0  0  0  0  0  0  0
   92.5890   47.2745  266.3896 C   0  0  0  0  0  0  0  0  0  0  0  0
   91.5683   48.2049  266.5759 C   0  0  0  0  0  0  0  0  0  0  0  0
   91.8300   49.4026  267.2297 C   0  0  0  0  0  0  0  0  0  0  0  0
   93.8878   47.5400  266.8820 C   0  0  0  0  0  0  0  0  0  0  0  0
   94.1599   48.7802  267.5411 C   0  0  0  0  0  0  0  0  0  0  0  0
   95.4145   49.0346  268.0280 N   0  0  0  0  0  0  0  0  0  0  0  0
   96.3713   48.0905  267.8536 C   0  0  0  0  0  0  0  0  0  0  0  0
   96.0910   46.8809  267.2282 C   0  0  0  0  0  0  0  0  0  0  0  0
   94.8599   46.5971  266.7393 N   0  0  0  0  0  0  0  0  0  0  0  0
   93.2846   50.9778  268.4857 C   0  0  0  0  0  0  0  0  0  0  0  0
   94.2454   51.9199  268.1045 C   0  0  0  0  0  0  0  0  0  0  0  0
   94.4590   53.0941  268.8278 C   0  0  0  0  0  0  0  0  0  0  0  0
   92.5073   51.1876  269.6303 C   0  0  0  0  0  0  0  0  0  0  0  0
   90.2493   47.9429  266.1975 N   0  0  0  0  0  0  0  0  0  0  0  0
   89.6938   47.1846  265.1577 C   0  0  0  0  0  0  0  0  0  0  0  0
   90.3836   46.9926  263.9558 C   0  0  0  0  0  0  0  0  0  0  0  0
   89.8604   46.3316  262.8928 N   0  0  0  0  0  0  0  0  0  0  0  0
   88.6069   45.8318  263.0224 C   0  0  0  0  0  0  0  0  0  0  0  0
   87.8451   45.9660  264.1837 C   0  0  0  0  0  0  0  0  0  0  0  0
   88.3928   46.6627  265.2677 C   0  0  0  0  0  0  0  0  0  0  0  0
   87.4640   46.8258  266.7979 S   0  0  0  0  0  0  0  0  0  0  0  0
   87.6173   48.2190  267.2276 O   0  0  0  0  0  0  0  0  0  0  0  0
   86.1278   46.2817  266.5368 O   0  0  0  0  0  0  0  0  0  0  0  0
   88.2895   45.7139  268.0726 C   0  0  0  0  0  0  0  0  0  0  0  0
   92.7122   52.3451  270.3867 C   0  0  0  0  0  0  0  0  0  0  0  0
   93.6742   53.3006  269.9675 C   0  0  0  0  0  0  0  0  0  0  0  0
   93.6619   54.6467  271.0869 S   0  0  0  0  0  0  0  0  0  0  0  0
   92.4847   53.7751  272.0143 C   0  0  0  0  0  0  0  0  0  0  0  0
   92.0618   52.6441  271.5401 N   0  0  0  0  0  0  0  0  0  0  0  0
   92.0618   54.3270  273.1729 N   0  0  0  0  0  0  0  0  0  0  0  0
   92.3879   46.3500  265.8687 H   0  0  0  0  0  0  0  0  0  0  0  0
   91.0253   50.1098  267.3668 H   0  0  0  0  0  0  0  0  0  0  0  0
   97.1725   48.5647  267.2678 H   0  0  0  0  0  0  0  0  0  0  0  0
   96.7485   47.8416  268.8565 H   0  0  0  0  0  0  0  0  0  0  0  0
   96.8769   46.1468  267.1294 H   0  0  0  0  0  0  0  0  0  0  0  0
   94.8406   51.7329  267.2229 H   0  0  0  0  0  0  0  0  0  0  0  0
   95.2014   53.8155  268.5197 H   0  0  0  0  0  0  0  0  0  0  0  0
   91.4554   51.1950  269.3085 H   0  0  0  0  0  0  0  0  0  0  0  0
   92.6803   50.3312  270.2986 H   0  0  0  0  0  0  0  0  0  0  0  0
   91.3838   47.3909  263.8698 H   0  0  0  0  0  0  0  0  0  0  0  0
   88.1763   45.3032  262.1848 H   0  0  0  0  0  0  0  0  0  0  0  0
   86.8539   45.5415  264.2451 H   0  0  0  0  0  0  0  0  0  0  0  0
   87.7485   45.7855  269.0276 H   0  0  0  0  0  0  0  0  0  0  0  0
   88.2707   44.6728  267.7179 H   0  0  0  0  0  0  0  0  0  0  0  0
   89.3322   46.0332  268.2172 H   0  0  0  0  0  0  0  0  0  0  0  0
   92.5033   55.2062  273.3521 H   0  0  0  0  0  0  0  0  0  0  0  0
  1  4  2  0  0  0  0
  1  6  1  0  0  0  0
  1 11  1  0  0  0  0
  2  3  1  0  0  0  0
  2  5  2  0  0  0  0
  3  4  1  0  0  0  0
  3 15  2  3  0  0  0
  5  6  1  0  0  0  0
  5 10  1  0  0  0  0
  6  7  2  0  0  0  0
  7  8  1  0  0  0  0
  8  9  1  0  0  0  0
  9 10  2  0  0  0  0
 11 12  2  0  0  0  0
 11 14  1  0  0  0  0
 12 13  1  0  0  0  0
 13 27  2  0  0  0  0
 14 26  1  0  0  0  0
 15 16  1  0  0  0  0
 16 17  2  0  0  0  0
 16 21  1  0  0  0  0
 17 18  1  0  0  0  0
 18 19  2  0  0  0  0
 19 20  1  0  0  0  0
 20 21  2  0  0  0  0
 21 22  1  0  0  0  0
 22 23  2  0  0  0  0
 22 24  2  0  0  0  0
 22 25  1  0  0  0  0
 26 27  1  0  0  0  0
 26 30  2  0  0  0  0
 27 28  1  0  0  0  0
 28 29  1  0  0  0  0
 29 30  1  0  0  0  0
 29 31  2  0  0  0  0
  2 32  1  0  0  0  0
  4 33  1  0  0  0  0
  8 34  1  0  0  0  0
  8 35  1  0  0  0  0
  9 36  1  0  0  0  0
 12 37  1  0  0  0  0
 13 38  1  0  0  0  0
 14 39  1  0  0  0  0
 14 40  1  0  0  0  0
 17 41  1  0  0  0  0
 19 42  1  0  0  0  0
 20 43  1  0  0  0  0
 25 44  1  0  0  0  0
 25 45  1  0  0  0  0
 25 46  1  0  0  0  0
 31 47  1  0  0  0  0
M  END
> <ID>
67

> <IC50[uM]>
0.031

$$$$
