42
  -OEChem-05192314313D
 Structure written by MMmdl.
 47 50  0     0  0  0  0  0  0999 V2000
   93.2875   49.7838  267.6770 C   0  0  0  0  0  0  0  0  0  0  0  0
   92.5724   47.3125  266.4966 C   0  0  0  0  0  0  0  0  0  0  0  0
   91.6143   48.3091  266.6745 C   0  0  0  0  0  0  0  0  0  0  0  0
   91.9734   49.5126  267.2693 C   0  0  0  0  0  0  0  0  0  0  0  0
   93.8983   47.5150  266.9402 C   0  0  0  0  0  0  0  0  0  0  0  0
   94.2747   48.7631  267.5237 C   0  0  0  0  0  0  0  0  0  0  0  0
   95.5632   48.9601  267.9551 N   0  0  0  0  0  0  0  0  0  0  0  0
   96.4531   47.9523  267.7789 C   0  0  0  0  0  0  0  0  0  0  0  0
   96.0721   46.7327  267.2263 C   0  0  0  0  0  0  0  0  0  0  0  0
   94.8009   46.4988  266.8238 N   0  0  0  0  0  0  0  0  0  0  0  0
   93.5911   51.0854  268.3137 C   0  0  0  0  0  0  0  0  0  0  0  0
   92.8469   51.5645  269.4014 C   0  0  0  0  0  0  0  0  0  0  0  0
   93.1400   52.7949  269.9867 C   0  0  0  0  0  0  0  0  0  0  0  0
   94.6339   51.8738  267.8239 C   0  0  0  0  0  0  0  0  0  0  0  0
   90.2801   48.1021  266.3129 N   0  0  0  0  0  0  0  0  0  0  0  0
   89.7132   47.3295  265.2851 C   0  0  0  0  0  0  0  0  0  0  0  0
   90.4095   47.1212  264.0895 C   0  0  0  0  0  0  0  0  0  0  0  0
   89.8943   46.4354  263.0351 N   0  0  0  0  0  0  0  0  0  0  0  0
   88.6421   45.9295  263.1649 C   0  0  0  0  0  0  0  0  0  0  0  0
   87.8836   46.0722  264.3230 C   0  0  0  0  0  0  0  0  0  0  0  0
   88.4211   46.7936  265.3951 C   0  0  0  0  0  0  0  0  0  0  0  0
   87.4795   46.9124  266.9240 S   0  0  0  0  0  0  0  0  0  0  0  0
   86.1188   46.4328  266.6652 O   0  0  0  0  0  0  0  0  0  0  0  0
   87.6945   48.2548  267.4760 O   0  0  0  0  0  0  0  0  0  0  0  0
   88.3552   45.6686  268.0255 C   0  0  0  0  0  0  0  0  0  0  0  0
   94.9298   53.1047  268.3962 C   0  0  0  0  0  0  0  0  0  0  0  0
   94.2024   53.5588  269.5010 C   0  0  0  0  0  0  0  0  0  0  0  0
   96.0833   55.7215  268.3802 C   0  0  0  0  0  0  0  0  0  0  0  0
   96.1817   54.0755  267.6506 S   0  0  0  0  0  0  0  0  0  0  0  0
   92.3004   46.3831  266.0184 H   0  0  0  0  0  0  0  0  0  0  0  0
   91.2141   50.2652  267.4229 H   0  0  0  0  0  0  0  0  0  0  0  0
   97.4815   48.0992  268.0742 H   0  0  0  0  0  0  0  0  0  0  0  0
   96.8104   45.9523  267.1157 H   0  0  0  0  0  0  0  0  0  0  0  0
   92.0337   50.9706  269.7917 H   0  0  0  0  0  0  0  0  0  0  0  0
   92.5468   53.1562  270.8137 H   0  0  0  0  0  0  0  0  0  0  0  0
   95.2194   51.5216  266.9875 H   0  0  0  0  0  0  0  0  0  0  0  0
   89.6159   48.5862  266.8826 H   0  0  0  0  0  0  0  0  0  0  0  0
   91.4068   47.5258  263.9999 H   0  0  0  0  0  0  0  0  0  0  0  0
   88.2145   45.3916  262.3317 H   0  0  0  0  0  0  0  0  0  0  0  0
   86.8988   45.6345  264.3931 H   0  0  0  0  0  0  0  0  0  0  0  0
   87.8672   45.6434  269.0110 H   0  0  0  0  0  0  0  0  0  0  0  0
   88.3033   44.6709  267.5652 H   0  0  0  0  0  0  0  0  0  0  0  0
   89.4083   45.9627  268.1454 H   0  0  0  0  0  0  0  0  0  0  0  0
   94.4609   54.4941  269.9751 H   0  0  0  0  0  0  0  0  0  0  0  0
   96.8566   56.3663  267.9372 H   0  0  0  0  0  0  0  0  0  0  0  0
   95.0902   56.1513  268.1824 H   0  0  0  0  0  0  0  0  0  0  0  0
   96.2427   55.6511  269.4663 H   0  0  0  0  0  0  0  0  0  0  0  0
  1  4  2  0  0  0  0
  1  6  1  0  0  0  0
  1 11  1  0  0  0  0
  2  3  2  0  0  0  0
  2  5  1  0  0  0  0
  3  4  1  0  0  0  0
  3 15  1  0  0  0  0
  5  6  2  0  0  0  0
  5 10  1  0  0  0  0
  6  7  1  0  0  0  0
  7  8  2  0  0  0  0
  8  9  1  0  0  0  0
  9 10  2  0  0  0  0
 11 12  2  0  0  0  0
 11 14  1  0  0  0  0
 12 13  1  0  0  0  0
 13 27  2  0  0  0  0
 14 26  2  0  0  0  0
 15 16  1  0  0  0  0
 16 17  2  0  0  0  0
 16 21  1  0  0  0  0
 17 18  1  0  0  0  0
 18 19  2  0  0  0  0
 19 20  1  0  0  0  0
 20 21  2  0  0  0  0
 21 22  1  0  0  0  0
 22 23  2  0  0  0  0
 22 24  2  0  0  0  0
 22 25  1  0  0  0  0
 26 27  1  0  0  0  0
 26 29  1  0  0  0  0
 28 29  1  0  0  0  0
  2 30  1  0  0  0  0
  4 31  1  0  0  0  0
  8 32  1  0  0  0  0
  9 33  1  0  0  0  0
 12 34  1  0  0  0  0
 13 35  1  0  0  0  0
 14 36  1  0  0  0  0
 15 37  1  0  0  0  0
 17 38  1  0  0  0  0
 19 39  1  0  0  0  0
 20 40  1  0  0  0  0
 25 41  1  0  0  0  0
 25 42  1  0  0  0  0
 25 43  1  0  0  0  0
 27 44  1  0  0  0  0
 28 45  1  0  0  0  0
 28 46  1  0  0  0  0
 28 47  1  0  0  0  0
M  END
> <ID>
42

> <IC50[uM]>
0.622

$$$$
42
  -OEChem-05192314313D
 Structure written by MMmdl.
 47 50  0     0  0  0  0  0  0999 V2000
   93.2875   49.7838  267.6770 C   0  0  0  0  0  0  0  0  0  0  0  0
   92.5724   47.3125  266.4966 C   0  0  0  0  0  0  0  0  0  0  0  0
   91.6143   48.3091  266.6745 C   0  0  0  0  0  0  0  0  0  0  0  0
   91.9734   49.5126  267.2693 C   0  0  0  0  0  0  0  0  0  0  0  0
   93.8983   47.5150  266.9402 C   0  0  0  0  0  0  0  0  0  0  0  0
   94.2747   48.7631  267.5237 C   0  0  0  0  0  0  0  0  0  0  0  0
   95.5632   48.9601  267.9551 N   0  0  0  0  0  0  0  0  0  0  0  0
   96.4531   47.9523  267.7789 C   0  0  0  0  0  0  0  0  0  0  0  0
   96.0721   46.7327  267.2263 C   0  0  0  0  0  0  0  0  0  0  0  0
   94.8009   46.4988  266.8238 N   0  0  0  0  0  0  0  0  0  0  0  0
   93.5911   51.0854  268.3137 C   0  0  0  0  0  0  0  0  0  0  0  0
   92.8469   51.5645  269.4014 C   0  0  0  0  0  0  0  0  0  0  0  0
   93.1400   52.7949  269.9867 C   0  0  0  0  0  0  0  0  0  0  0  0
   94.6339   51.8738  267.8239 C   0  0  0  0  0  0  0  0  0  0  0  0
   90.2801   48.1021  266.3129 N   0  0  0  0  0  0  0  0  0  0  0  0
   89.7132   47.3295  265.2851 C   0  0  0  0  0  0  0  0  0  0  0  0
   90.4095   47.1212  264.0895 C   0  0  0  0  0  0  0  0  0  0  0  0
   89.8943   46.4354  263.0351 N   0  0  0  0  0  0  0  0  0  0  0  0
   88.6421   45.9295  263.1649 C   0  0  0  0  0  0  0  0  0  0  0  0
   87.8836   46.0722  264.3230 C   0  0  0  0  0  0  0  0  0  0  0  0
   88.4211   46.7936  265.3951 C   0  0  0  0  0  0  0  0  0  0  0  0
   87.4795   46.9124  266.9240 S   0  0  0  0  0  0  0  0  0  0  0  0
   86.1188   46.4328  266.6652 O   0  0  0  0  0  0  0  0  0  0  0  0
   87.6945   48.2548  267.4760 O   0  0  0  0  0  0  0  0  0  0  0  0
   88.3552   45.6686  268.0255 C   0  0  0  0  0  0  0  0  0  0  0  0
   94.9298   53.1047  268.3962 C   0  0  0  0  0  0  0  0  0  0  0  0
   94.2024   53.5588  269.5010 C   0  0  0  0  0  0  0  0  0  0  0  0
   96.0833   55.7215  268.3802 C   0  0  0  0  0  0  0  0  0  0  0  0
   96.1817   54.0755  267.6506 S   0  0  0  0  0  0  0  0  0  0  0  0
   92.3004   46.3831  266.0184 H   0  0  0  0  0  0  0  0  0  0  0  0
   91.2141   50.2652  267.4229 H   0  0  0  0  0  0  0  0  0  0  0  0
   97.4815   48.0992  268.0742 H   0  0  0  0  0  0  0  0  0  0  0  0
   96.8104   45.9523  267.1157 H   0  0  0  0  0  0  0  0  0  0  0  0
   94.5322   45.6098  266.4531 H   0  0  0  0  0  0  0  0  0  0  0  0
   92.0337   50.9706  269.7917 H   0  0  0  0  0  0  0  0  0  0  0  0
   92.5468   53.1562  270.8137 H   0  0  0  0  0  0  0  0  0  0  0  0
   95.2194   51.5216  266.9875 H   0  0  0  0  0  0  0  0  0  0  0  0
   91.4068   47.5258  263.9999 H   0  0  0  0  0  0  0  0  0  0  0  0
   88.2145   45.3916  262.3317 H   0  0  0  0  0  0  0  0  0  0  0  0
   86.8988   45.6345  264.3931 H   0  0  0  0  0  0  0  0  0  0  0  0
   87.8672   45.6434  269.0110 H   0  0  0  0  0  0  0  0  0  0  0  0
   88.3033   44.6709  267.5652 H   0  0  0  0  0  0  0  0  0  0  0  0
   89.4083   45.9627  268.1454 H   0  0  0  0  0  0  0  0  0  0  0  0
   94.4609   54.4941  269.9751 H   0  0  0  0  0  0  0  0  0  0  0  0
   96.8566   56.3663  267.9372 H   0  0  0  0  0  0  0  0  0  0  0  0
   95.0902   56.1513  268.1824 H   0  0  0  0  0  0  0  0  0  0  0  0
   96.2427   55.6511  269.4663 H   0  0  0  0  0  0  0  0  0  0  0  0
  1  4  2  0  0  0  0
  1  6  1  0  0  0  0
  1 11  1  0  0  0  0
  2  3  1  0  0  0  0
  2  5  2  0  0  0  0
  3  4  1  0  0  0  0
  3 15  2  3  0  0  0
  5  6  1  0  0  0  0
  5 10  1  0  0  0  0
  6  7  2  0  0  0  0
  7  8  1  0  0  0  0
  8  9  2  0  0  0  0
  9 10  1  0  0  0  0
 11 12  2  0  0  0  0
 11 14  1  0  0  0  0
 12 13  1  0  0  0  0
 13 27  2  0  0  0  0
 14 26  2  0  0  0  0
 15 16  1  0  0  0  0
 16 17  2  0  0  0  0
 16 21  1  0  0  0  0
 17 18  1  0  0  0  0
 18 19  2  0  0  0  0
 19 20  1  0  0  0  0
 20 21  2  0  0  0  0
 21 22  1  0  0  0  0
 22 23  2  0  0  0  0
 22 24  2  0  0  0  0
 22 25  1  0  0  0  0
 26 27  1  0  0  0  0
 26 29  1  0  0  0  0
 28 29  1  0  0  0  0
  2 30  1  0  0  0  0
  4 31  1  0  0  0  0
  8 32  1  0  0  0  0
  9 33  1  0  0  0  0
 10 34  1  0  0  0  0
 12 35  1  0  0  0  0
 13 36  1  0  0  0  0
 14 37  1  0  0  0  0
 17 38  1  0  0  0  0
 19 39  1  0  0  0  0
 20 40  1  0  0  0  0
 25 41  1  0  0  0  0
 25 42  1  0  0  0  0
 25 43  1  0  0  0  0
 27 44  1  0  0  0  0
 28 45  1  0  0  0  0
 28 46  1  0  0  0  0
 28 47  1  0  0  0  0
M  END
> <ID>
42

> <IC50[uM]>
0.622

$$$$
42
  -OEChem-05192314313D
 Structure written by MMmdl.
 47 50  0     0  0  0  0  0  0999 V2000
   93.2875   49.7838  267.6770 C   0  0  0  0  0  0  0  0  0  0  0  0
   92.5724   47.3125  266.4966 C   0  0  0  0  0  0  0  0  0  0  0  0
   91.6143   48.3091  266.6745 C   0  0  0  0  0  0  0  0  0  0  0  0
   91.9734   49.5126  267.2693 C   0  0  0  0  0  0  0  0  0  0  0  0
   93.8983   47.5150  266.9402 C   0  0  0  0  0  0  0  0  0  0  0  0
   94.2747   48.7631  267.5237 C   0  0  0  0  0  0  0  0  0  0  0  0
   95.5632   48.9601  267.9551 N   0  0  0  0  0  0  0  0  0  0  0  0
   96.4531   47.9523  267.7789 C   0  0  0  0  0  0  0  0  0  0  0  0
   96.0721   46.7327  267.2263 C   0  0  0  0  0  0  0  0  0  0  0  0
   94.8009   46.4988  266.8238 N   0  0  0  0  0  0  0  0  0  0  0  0
   93.5911   51.0854  268.3137 C   0  0  0  0  0  0  0  0  0  0  0  0
   92.8469   51.5645  269.4014 C   0  0  0  0  0  0  0  0  0  0  0  0
   93.1400   52.7949  269.9867 C   0  0  0  0  0  0  0  0  0  0  0  0
   94.6339   51.8738  267.8239 C   0  0  0  0  0  0  0  0  0  0  0  0
   90.2801   48.1021  266.3129 N   0  0  0  0  0  0  0  0  0  0  0  0
   89.7132   47.3295  265.2851 C   0  0  0  0  0  0  0  0  0  0  0  0
   90.4095   47.1212  264.0895 C   0  0  0  0  0  0  0  0  0  0  0  0
   89.8943   46.4354  263.0351 N   0  0  0  0  0  0  0  0  0  0  0  0
   88.6421   45.9295  263.1649 C   0  0  0  0  0  0  0  0  0  0  0  0
   87.8836   46.0722  264.3230 C   0  0  0  0  0  0  0  0  0  0  0  0
   88.4211   46.7936  265.3951 C   0  0  0  0  0  0  0  0  0  0  0  0
   87.4795   46.9124  266.9240 S   0  0  0  0  0  0  0  0  0  0  0  0
   86.1188   46.4328  266.6652 O   0  0  0  0  0  0  0  0  0  0  0  0
   87.6945   48.2548  267.4760 O   0  0  0  0  0  0  0  0  0  0  0  0
   88.3552   45.6686  268.0255 C   0  0  0  0  0  0  0  0  0  0  0  0
   94.9298   53.1047  268.3962 C   0  0  0  0  0  0  0  0  0  0  0  0
   94.2024   53.5588  269.5010 C   0  0  0  0  0  0  0  0  0  0  0  0
   96.0833   55.7215  268.3802 C   0  0  0  0  0  0  0  0  0  0  0  0
   96.1817   54.0755  267.6506 S   0  0  0  0  0  0  0  0  0  0  0  0
   92.1983   46.4173  267.0149 H   0  0  0  0  0  0  0  0  0  0  0  0
   92.6267   47.1146  265.4159 H   0  0  0  0  0  0  0  0  0  0  0  0
   91.2141   50.2652  267.4229 H   0  0  0  0  0  0  0  0  0  0  0  0
   97.4815   48.0992  268.0742 H   0  0  0  0  0  0  0  0  0  0  0  0
   96.8104   45.9523  267.1157 H   0  0  0  0  0  0  0  0  0  0  0  0
   92.0337   50.9706  269.7917 H   0  0  0  0  0  0  0  0  0  0  0  0
   92.5468   53.1562  270.8137 H   0  0  0  0  0  0  0  0  0  0  0  0
   95.2194   51.5216  266.9875 H   0  0  0  0  0  0  0  0  0  0  0  0
   91.4068   47.5258  263.9999 H   0  0  0  0  0  0  0  0  0  0  0  0
   88.2145   45.3916  262.3317 H   0  0  0  0  0  0  0  0  0  0  0  0
   86.8988   45.6345  264.3931 H   0  0  0  0  0  0  0  0  0  0  0  0
   87.8672   45.6434  269.0110 H   0  0  0  0  0  0  0  0  0  0  0  0
   88.3033   44.6709  267.5652 H   0  0  0  0  0  0  0  0  0  0  0  0
   89.4083   45.9627  268.1454 H   0  0  0  0  0  0  0  0  0  0  0  0
   94.4609   54.4941  269.9751 H   0  0  0  0  0  0  0  0  0  0  0  0
   96.8566   56.3663  267.9372 H   0  0  0  0  0  0  0  0  0  0  0  0
   95.0902   56.1513  268.1824 H   0  0  0  0  0  0  0  0  0  0  0  0
   96.2427   55.6511  269.4663 H   0  0  0  0  0  0  0  0  0  0  0  0
  1  4  2  0  0  0  0
  1  6  1  0  0  0  0
  1 11  1  0  0  0  0
  2  3  1  0  0  0  0
  2  5  1  0  0  0  0
  3  4  1  0  0  0  0
  3 15  2  3  0  0  0
  5  6  2  0  0  0  0
  5 10  1  0  0  0  0
  6  7  1  0  0  0  0
  7  8  2  0  0  0  0
  8  9  1  0  0  0  0
  9 10  2  0  0  0  0
 11 12  2  0  0  0  0
 11 14  1  0  0  0  0
 12 13  1  0  0  0  0
 13 27  2  0  0  0  0
 14 26  2  0  0  0  0
 15 16  1  0  0  0  0
 16 17  2  0  0  0  0
 16 21  1  0  0  0  0
 17 18  1  0  0  0  0
 18 19  2  0  0  0  0
 19 20  1  0  0  0  0
 20 21  2  0  0  0  0
 21 22  1  0  0  0  0
 22 23  2  0  0  0  0
 22 24  2  0  0  0  0
 22 25  1  0  0  0  0
 26 27  1  0  0  0  0
 26 29  1  0  0  0  0
 28 29  1  0  0  0  0
  2 30  1  0  0  0  0
  2 31  1  0  0  0  0
  4 32  1  0  0  0  0
  8 33  1  0  0  0  0
  9 34  1  0  0  0  0
 12 35  1  0  0  0  0
 13 36  1  0  0  0  0
 14 37  1  0  0  0  0
 17 38  1  0  0  0  0
 19 39  1  0  0  0  0
 20 40  1  0  0  0  0
 25 41  1  0  0  0  0
 25 42  1  0  0  0  0
 25 43  1  0  0  0  0
 27 44  1  0  0  0  0
 28 45  1  0  0  0  0
 28 46  1  0  0  0  0
 28 47  1  0  0  0  0
M  END
> <ID>
42

> <IC50[uM]>
0.622

$$$$
42
  -OEChem-05192314313D
 Structure written by MMmdl.
 47 50  0     0  0  0  0  0  0999 V2000
   93.2875   49.7838  267.6770 C   0  0  0  0  0  0  0  0  0  0  0  0
   92.5724   47.3125  266.4966 C   0  0  0  0  0  0  0  0  0  0  0  0
   91.6143   48.3091  266.6745 C   0  0  0  0  0  0  0  0  0  0  0  0
   91.9734   49.5126  267.2693 C   0  0  0  0  0  0  0  0  0  0  0  0
   93.8983   47.5150  266.9402 C   0  0  0  0  0  0  0  0  0  0  0  0
   94.2747   48.7631  267.5237 C   0  0  0  0  0  0  0  0  0  0  0  0
   95.5632   48.9601  267.9551 N   0  0  0  0  0  0  0  0  0  0  0  0
   96.4531   47.9523  267.7789 C   0  0  0  0  0  0  0  0  0  0  0  0
   96.0721   46.7327  267.2263 C   0  0  0  0  0  0  0  0  0  0  0  0
   94.8009   46.4988  266.8238 N   0  0  0  0  0  0  0  0  0  0  0  0
   93.5911   51.0854  268.3137 C   0  0  0  0  0  0  0  0  0  0  0  0
   92.8469   51.5645  269.4014 C   0  0  0  0  0  0  0  0  0  0  0  0
   93.1400   52.7949  269.9867 C   0  0  0  0  0  0  0  0  0  0  0  0
   94.6339   51.8738  267.8239 C   0  0  0  0  0  0  0  0  0  0  0  0
   90.2801   48.1021  266.3129 N   0  0  0  0  0  0  0  0  0  0  0  0
   89.7132   47.3295  265.2851 C   0  0  0  0  0  0  0  0  0  0  0  0
   90.4095   47.1212  264.0895 C   0  0  0  0  0  0  0  0  0  0  0  0
   89.8943   46.4354  263.0351 N   0  0  0  0  0  0  0  0  0  0  0  0
   88.6421   45.9295  263.1649 C   0  0  0  0  0  0  0  0  0  0  0  0
   87.8836   46.0722  264.3230 C   0  0  0  0  0  0  0  0  0  0  0  0
   88.4211   46.7936  265.3951 C   0  0  0  0  0  0  0  0  0  0  0  0
   87.4795   46.9124  266.9240 S   0  0  0  0  0  0  0  0  0  0  0  0
   86.1188   46.4328  266.6652 O   0  0  0  0  0  0  0  0  0  0  0  0
   87.6945   48.2548  267.4760 O   0  0  0  0  0  0  0  0  0  0  0  0
   88.3552   45.6686  268.0255 C   0  0  0  0  0  0  0  0  0  0  0  0
   94.9298   53.1047  268.3962 C   0  0  0  0  0  0  0  0  0  0  0  0
   94.2024   53.5588  269.5010 C   0  0  0  0  0  0  0  0  0  0  0  0
   96.0833   55.7215  268.3802 C   0  0  0  0  0  0  0  0  0  0  0  0
   96.1817   54.0755  267.6506 S   0  0  0  0  0  0  0  0  0  0  0  0
   92.3004   46.3831  266.0184 H   0  0  0  0  0  0  0  0  0  0  0  0
   91.3474   49.6089  268.1686 H   0  0  0  0  0  0  0  0  0  0  0  0
   91.7065   50.3014  266.5506 H   0  0  0  0  0  0  0  0  0  0  0  0
   97.4815   48.0992  268.0742 H   0  0  0  0  0  0  0  0  0  0  0  0
   96.8104   45.9523  267.1157 H   0  0  0  0  0  0  0  0  0  0  0  0
   92.0337   50.9706  269.7917 H   0  0  0  0  0  0  0  0  0  0  0  0
   92.5468   53.1562  270.8137 H   0  0  0  0  0  0  0  0  0  0  0  0
   95.2194   51.5216  266.9875 H   0  0  0  0  0  0  0  0  0  0  0  0
   91.4068   47.5258  263.9999 H   0  0  0  0  0  0  0  0  0  0  0  0
   88.2145   45.3916  262.3317 H   0  0  0  0  0  0  0  0  0  0  0  0
   86.8988   45.6345  264.3931 H   0  0  0  0  0  0  0  0  0  0  0  0
   87.8672   45.6434  269.0110 H   0  0  0  0  0  0  0  0  0  0  0  0
   88.3033   44.6709  267.5652 H   0  0  0  0  0  0  0  0  0  0  0  0
   89.4083   45.9627  268.1454 H   0  0  0  0  0  0  0  0  0  0  0  0
   94.4609   54.4941  269.9751 H   0  0  0  0  0  0  0  0  0  0  0  0
   96.8566   56.3663  267.9372 H   0  0  0  0  0  0  0  0  0  0  0  0
   95.0902   56.1513  268.1824 H   0  0  0  0  0  0  0  0  0  0  0  0
   96.2427   55.6511  269.4663 H   0  0  0  0  0  0  0  0  0  0  0  0
  1  4  1  0  0  0  0
  1  6  2  0  0  0  0
  1 11  1  0  0  0  0
  2  3  1  0  0  0  0
  2  5  2  0  0  0  0
  3  4  1  0  0  0  0
  3 15  2  3  0  0  0
  5  6  1  0  0  0  0
  5 10  1  0  0  0  0
  6  7  1  0  0  0  0
  7  8  2  0  0  0  0
  8  9  1  0  0  0  0
  9 10  2  0  0  0  0
 11 12  2  0  0  0  0
 11 14  1  0  0  0  0
 12 13  1  0  0  0  0
 13 27  2  0  0  0  0
 14 26  2  0  0  0  0
 15 16  1  0  0  0  0
 16 17  2  0  0  0  0
 16 21  1  0  0  0  0
 17 18  1  0  0  0  0
 18 19  2  0  0  0  0
 19 20  1  0  0  0  0
 20 21  2  0  0  0  0
 21 22  1  0  0  0  0
 22 23  2  0  0  0  0
 22 24  2  0  0  0  0
 22 25  1  0  0  0  0
 26 27  1  0  0  0  0
 26 29  1  0  0  0  0
 28 29  1  0  0  0  0
  2 30  1  0  0  0  0
  4 31  1  0  0  0  0
  4 32  1  0  0  0  0
  8 33  1  0  0  0  0
  9 34  1  0  0  0  0
 12 35  1  0  0  0  0
 13 36  1  0  0  0  0
 14 37  1  0  0  0  0
 17 38  1  0  0  0  0
 19 39  1  0  0  0  0
 20 40  1  0  0  0  0
 25 41  1  0  0  0  0
 25 42  1  0  0  0  0
 25 43  1  0  0  0  0
 27 44  1  0  0  0  0
 28 45  1  0  0  0  0
 28 46  1  0  0  0  0
 28 47  1  0  0  0  0
M  END
> <ID>
42

> <IC50[uM]>
0.622

$$$$
42
  -OEChem-05192314313D
 Structure written by MMmdl.
 47 50  0     1  0  0  0  0  0999 V2000
   93.2875   49.7838  267.6770 C   0  0  0  0  0  0  0  0  0  0  0  0
   92.5724   47.3125  266.4966 C   0  0  0  0  0  0  0  0  0  0  0  0
   91.6143   48.3091  266.6745 C   0  0  0  0  0  0  0  0  0  0  0  0
   91.9734   49.5126  267.2693 C   0  0  0  0  0  0  0  0  0  0  0  0
   93.8983   47.5150  266.9402 C   0  0  0  0  0  0  0  0  0  0  0  0
   94.2747   48.7631  267.5237 C   0  0  0  0  0  0  0  0  0  0  0  0
   95.5632   48.9601  267.9551 N   0  0  0  0  0  0  0  0  0  0  0  0
   96.4531   47.9523  267.7789 C   0  0  0  0  0  0  0  0  0  0  0  0
   96.0721   46.7327  267.2263 C   0  0  0  0  0  0  0  0  0  0  0  0
   94.8009   46.4988  266.8238 N   0  0  0  0  0  0  0  0  0  0  0  0
   93.5911   51.0854  268.3137 C   0  0  0  0  0  0  0  0  0  0  0  0
   92.8469   51.5645  269.4014 C   0  0  0  0  0  0  0  0  0  0  0  0
   93.1400   52.7949  269.9867 C   0  0  0  0  0  0  0  0  0  0  0  0
   94.6339   51.8738  267.8239 C   0  0  0  0  0  0  0  0  0  0  0  0
   90.2801   48.1021  266.3129 N   0  0  0  0  0  0  0  0  0  0  0  0
   89.7132   47.3295  265.2851 C   0  0  0  0  0  0  0  0  0  0  0  0
   90.4095   47.1212  264.0895 C   0  0  0  0  0  0  0  0  0  0  0  0
   89.8943   46.4354  263.0351 N   0  0  0  0  0  0  0  0  0  0  0  0
   88.6421   45.9295  263.1649 C   0  0  0  0  0  0  0  0  0  0  0  0
   87.8836   46.0722  264.3230 C   0  0  0  0  0  0  0  0  0  0  0  0
   88.4211   46.7936  265.3951 C   0  0  3  0  0  0  0  0  0  0  0  0
   87.4795   46.9124  266.9240 S   0  0  0  0  0  0  0  0  0  0  0  0
   86.1188   46.4328  266.6652 O   0  0  0  0  0  0  0  0  0  0  0  0
   87.6945   48.2548  267.4760 O   0  0  0  0  0  0  0  0  0  0  0  0
   88.3552   45.6686  268.0255 C   0  0  0  0  0  0  0  0  0  0  0  0
   94.9298   53.1047  268.3962 C   0  0  0  0  0  0  0  0  0  0  0  0
   94.2024   53.5588  269.5010 C   0  0  0  0  0  0  0  0  0  0  0  0
   96.0833   55.7215  268.3802 C   0  0  0  0  0  0  0  0  0  0  0  0
   96.1817   54.0755  267.6506 S   0  0  0  0  0  0  0  0  0  0  0  0
   92.3004   46.3831  266.0184 H   0  0  0  0  0  0  0  0  0  0  0  0
   91.2141   50.2652  267.4229 H   0  0  0  0  0  0  0  0  0  0  0  0
   97.4815   48.0992  268.0742 H   0  0  0  0  0  0  0  0  0  0  0  0
   96.8104   45.9523  267.1157 H   0  0  0  0  0  0  0  0  0  0  0  0
   92.0337   50.9706  269.7917 H   0  0  0  0  0  0  0  0  0  0  0  0
   92.5468   53.1562  270.8137 H   0  0  0  0  0  0  0  0  0  0  0  0
   95.2194   51.5216  266.9875 H   0  0  0  0  0  0  0  0  0  0  0  0
   91.4068   47.5258  263.9999 H   0  0  0  0  0  0  0  0  0  0  0  0
   88.2145   45.3916  262.3317 H   0  0  0  0  0  0  0  0  0  0  0  0
   86.8988   45.6345  264.3931 H   0  0  0  0  0  0  0  0  0  0  0  0
   87.9743   47.7277  265.0240 H   0  0  0  0  0  0  0  0  0  0  0  0
   87.8672   45.6434  269.0110 H   0  0  0  0  0  0  0  0  0  0  0  0
   88.3033   44.6709  267.5652 H   0  0  0  0  0  0  0  0  0  0  0  0
   89.4083   45.9627  268.1454 H   0  0  0  0  0  0  0  0  0  0  0  0
   94.4609   54.4941  269.9751 H   0  0  0  0  0  0  0  0  0  0  0  0
   96.8566   56.3663  267.9372 H   0  0  0  0  0  0  0  0  0  0  0  0
   95.0902   56.1513  268.1824 H   0  0  0  0  0  0  0  0  0  0  0  0
   96.2427   55.6511  269.4663 H   0  0  0  0  0  0  0  0  0  0  0  0
  1  4  2  0  0  0  0
  1  6  1  0  0  0  0
  1 11  1  0  0  0  0
  2  3  2  0  0  0  0
  2  5  1  0  0  0  0
  3  4  1  0  0  0  0
  3 15  1  0  0  0  0
  5  6  2  0  0  0  0
  5 10  1  0  0  0  0
  6  7  1  0  0  0  0
  7  8  2  0  0  0  0
  8  9  1  0  0  0  0
  9 10  2  0  0  0  0
 11 12  2  0  0  0  0
 11 14  1  0  0  0  0
 12 13  1  0  0  0  0
 13 27  2  0  0  0  0
 14 26  2  0  0  0  0
 15 16  2  3  0  0  0
 16 17  1  0  0  0  0
 16 21  1  0  0  0  0
 17 18  2  0  0  0  0
 18 19  1  0  0  0  0
 19 20  2  0  0  0  0
 20 21  1  0  0  0  0
 21 22  1  0  0  0  0
 22 23  2  0  0  0  0
 22 24  2  0  0  0  0
 22 25  1  0  0  0  0
 26 27  1  0  0  0  0
 26 29  1  0  0  0  0
 28 29  1  0  0  0  0
  2 30  1  0  0  0  0
  4 31  1  0  0  0  0
  8 32  1  0  0  0  0
  9 33  1  0  0  0  0
 12 34  1  0  0  0  0
 13 35  1  0  0  0  0
 14 36  1  0  0  0  0
 17 37  1  0  0  0  0
 19 38  1  0  0  0  0
 20 39  1  0  0  0  0
 21 40  1  0  0  0  0
 25 41  1  0  0  0  0
 25 42  1  0  0  0  0
 25 43  1  0  0  0  0
 27 44  1  0  0  0  0
 28 45  1  0  0  0  0
 28 46  1  0  0  0  0
 28 47  1  0  0  0  0
M  END
> <ID>
42

> <IC50[uM]>
0.622

$$$$
42
  -OEChem-05192314313D
 Structure written by MMmdl.
 47 50  0     0  0  0  0  0  0999 V2000
   93.2875   49.7838  267.6770 C   0  0  0  0  0  0  0  0  0  0  0  0
   92.5724   47.3125  266.4966 C   0  0  0  0  0  0  0  0  0  0  0  0
   91.6143   48.3091  266.6745 C   0  0  0  0  0  0  0  0  0  0  0  0
   91.9734   49.5126  267.2693 C   0  0  0  0  0  0  0  0  0  0  0  0
   93.8983   47.5150  266.9402 C   0  0  0  0  0  0  0  0  0  0  0  0
   94.2747   48.7631  267.5237 C   0  0  0  0  0  0  0  0  0  0  0  0
   95.5632   48.9601  267.9551 N   0  0  0  0  0  0  0  0  0  0  0  0
   96.4531   47.9523  267.7789 C   0  0  0  0  0  0  0  0  0  0  0  0
   96.0721   46.7327  267.2263 C   0  0  0  0  0  0  0  0  0  0  0  0
   94.8009   46.4988  266.8238 N   0  0  0  0  0  0  0  0  0  0  0  0
   93.5911   51.0854  268.3137 C   0  0  0  0  0  0  0  0  0  0  0  0
   92.8469   51.5645  269.4014 C   0  0  0  0  0  0  0  0  0  0  0  0
   93.1400   52.7949  269.9867 C   0  0  0  0  0  0  0  0  0  0  0  0
   94.6339   51.8738  267.8239 C   0  0  0  0  0  0  0  0  0  0  0  0
   90.2801   48.1021  266.3129 N   0  0  0  0  0  0  0  0  0  0  0  0
   89.7132   47.3295  265.2851 C   0  0  0  0  0  0  0  0  0  0  0  0
   90.4095   47.1212  264.0895 C   0  0  0  0  0  0  0  0  0  0  0  0
   89.8943   46.4354  263.0351 N   0  0  0  0  0  0  0  0  0  0  0  0
   88.6421   45.9295  263.1649 C   0  0  0  0  0  0  0  0  0  0  0  0
   87.8836   46.0722  264.3230 C   0  0  0  0  0  0  0  0  0  0  0  0
   88.4211   46.7936  265.3951 C   0  0  0  0  0  0  0  0  0  0  0  0
   87.4795   46.9124  266.9240 S   0  0  0  0  0  0  0  0  0  0  0  0
   86.1188   46.4328  266.6652 O   0  0  0  0  0  0  0  0  0  0  0  0
   87.6945   48.2548  267.4760 O   0  0  0  0  0  0  0  0  0  0  0  0
   88.3552   45.6686  268.0255 C   0  0  0  0  0  0  0  0  0  0  0  0
   94.9298   53.1047  268.3962 C   0  0  0  0  0  0  0  0  0  0  0  0
   94.2024   53.5588  269.5010 C   0  0  0  0  0  0  0  0  0  0  0  0
   96.0833   55.7215  268.3802 C   0  0  0  0  0  0  0  0  0  0  0  0
   96.1817   54.0755  267.6506 S   0  0  0  0  0  0  0  0  0  0  0  0
   92.3004   46.3831  266.0184 H   0  0  0  0  0  0  0  0  0  0  0  0
   91.2141   50.2652  267.4229 H   0  0  0  0  0  0  0  0  0  0  0  0
   97.4815   48.0992  268.0742 H   0  0  0  0  0  0  0  0  0  0  0  0
   96.8104   45.9523  267.1157 H   0  0  0  0  0  0  0  0  0  0  0  0
   92.0337   50.9706  269.7917 H   0  0  0  0  0  0  0  0  0  0  0  0
   92.5468   53.1562  270.8137 H   0  0  0  0  0  0  0  0  0  0  0  0
   95.2194   51.5216  266.9875 H   0  0  0  0  0  0  0  0  0  0  0  0
   91.4068   47.5258  263.9999 H   0  0  0  0  0  0  0  0  0  0  0  0
   88.0479   46.3797  262.3560 H   0  0  0  0  0  0  0  0  0  0  0  0
   88.7334   44.8467  262.9938 H   0  0  0  0  0  0  0  0  0  0  0  0
   86.8988   45.6345  264.3931 H   0  0  0  0  0  0  0  0  0  0  0  0
   87.8672   45.6434  269.0110 H   0  0  0  0  0  0  0  0  0  0  0  0
   88.3033   44.6709  267.5652 H   0  0  0  0  0  0  0  0  0  0  0  0
   89.4083   45.9627  268.1454 H   0  0  0  0  0  0  0  0  0  0  0  0
   94.4609   54.4941  269.9751 H   0  0  0  0  0  0  0  0  0  0  0  0
   96.8566   56.3663  267.9372 H   0  0  0  0  0  0  0  0  0  0  0  0
   95.0902   56.1513  268.1824 H   0  0  0  0  0  0  0  0  0  0  0  0
   96.2427   55.6511  269.4663 H   0  0  0  0  0  0  0  0  0  0  0  0
  1  4  2  0  0  0  0
  1  6  1  0  0  0  0
  1 11  1  0  0  0  0
  2  3  2  0  0  0  0
  2  5  1  0  0  0  0
  3  4  1  0  0  0  0
  3 15  1  0  0  0  0
  5  6  2  0  0  0  0
  5 10  1  0  0  0  0
  6  7  1  0  0  0  0
  7  8  2  0  0  0  0
  8  9  1  0  0  0  0
  9 10  2  0  0  0  0
 11 12  2  0  0  0  0
 11 14  1  0  0  0  0
 12 13  1  0  0  0  0
 13 27  2  0  0  0  0
 14 26  2  0  0  0  0
 15 16  2  3  0  0  0
 16 17  1  0  0  0  0
 16 21  1  0  0  0  0
 17 18  2  0  0  0  0
 18 19  1  0  0  0  0
 19 20  1  0  0  0  0
 20 21  2  0  0  0  0
 21 22  1  0  0  0  0
 22 23  2  0  0  0  0
 22 24  2  0  0  0  0
 22 25  1  0  0  0  0
 26 27  1  0  0  0  0
 26 29  1  0  0  0  0
 28 29  1  0  0  0  0
  2 30  1  0  0  0  0
  4 31  1  0  0  0  0
  8 32  1  0  0  0  0
  9 33  1  0  0  0  0
 12 34  1  0  0  0  0
 13 35  1  0  0  0  0
 14 36  1  0  0  0  0
 17 37  1  0  0  0  0
 19 38  1  0  0  0  0
 19 39  1  0  0  0  0
 20 40  1  0  0  0  0
 25 41  1  0  0  0  0
 25 42  1  0  0  0  0
 25 43  1  0  0  0  0
 27 44  1  0  0  0  0
 28 45  1  0  0  0  0
 28 46  1  0  0  0  0
 28 47  1  0  0  0  0
M  END
> <ID>
42

> <IC50[uM]>
0.622

$$$$
42
  -OEChem-05192314313D
 Structure written by MMmdl.
 47 50  0     0  0  0  0  0  0999 V2000
   93.2875   49.7838  267.6770 C   0  0  0  0  0  0  0  0  0  0  0  0
   92.5724   47.3125  266.4966 C   0  0  0  0  0  0  0  0  0  0  0  0
   91.6143   48.3091  266.6745 C   0  0  0  0  0  0  0  0  0  0  0  0
   91.9734   49.5126  267.2693 C   0  0  0  0  0  0  0  0  0  0  0  0
   93.8983   47.5150  266.9402 C   0  0  0  0  0  0  0  0  0  0  0  0
   94.2747   48.7631  267.5237 C   0  0  0  0  0  0  0  0  0  0  0  0
   95.5632   48.9601  267.9551 N   0  0  0  0  0  0  0  0  0  0  0  0
   96.4531   47.9523  267.7789 C   0  0  0  0  0  0  0  0  0  0  0  0
   96.0721   46.7327  267.2263 C   0  0  0  0  0  0  0  0  0  0  0  0
   94.8009   46.4988  266.8238 N   0  0  0  0  0  0  0  0  0  0  0  0
   93.5911   51.0854  268.3137 C   0  0  0  0  0  0  0  0  0  0  0  0
   92.8469   51.5645  269.4014 C   0  0  0  0  0  0  0  0  0  0  0  0
   93.1400   52.7949  269.9867 C   0  0  0  0  0  0  0  0  0  0  0  0
   94.6339   51.8738  267.8239 C   0  0  0  0  0  0  0  0  0  0  0  0
   90.2801   48.1021  266.3129 N   0  0  0  0  0  0  0  0  0  0  0  0
   89.7132   47.3295  265.2851 C   0  0  0  0  0  0  0  0  0  0  0  0
   90.4095   47.1212  264.0895 C   0  0  0  0  0  0  0  0  0  0  0  0
   89.8943   46.4354  263.0351 N   0  0  0  0  0  0  0  0  0  0  0  0
   88.6421   45.9295  263.1649 C   0  0  0  0  0  0  0  0  0  0  0  0
   87.8836   46.0722  264.3230 C   0  0  0  0  0  0  0  0  0  0  0  0
   88.4211   46.7936  265.3951 C   0  0  0  0  0  0  0  0  0  0  0  0
   87.4795   46.9124  266.9240 S   0  0  0  0  0  0  0  0  0  0  0  0
   86.1188   46.4328  266.6652 O   0  0  0  0  0  0  0  0  0  0  0  0
   87.6945   48.2548  267.4760 O   0  0  0  0  0  0  0  0  0  0  0  0
   88.3552   45.6686  268.0255 C   0  0  0  0  0  0  0  0  0  0  0  0
   94.9298   53.1047  268.3962 C   0  0  0  0  0  0  0  0  0  0  0  0
   94.2024   53.5588  269.5010 C   0  0  0  0  0  0  0  0  0  0  0  0
   96.0833   55.7215  268.3802 C   0  0  0  0  0  0  0  0  0  0  0  0
   96.1817   54.0755  267.6506 S   0  0  0  0  0  0  0  0  0  0  0  0
   92.3004   46.3831  266.0184 H   0  0  0  0  0  0  0  0  0  0  0  0
   91.2141   50.2652  267.4229 H   0  0  0  0  0  0  0  0  0  0  0  0
   97.4815   48.0992  268.0742 H   0  0  0  0  0  0  0  0  0  0  0  0
   96.8104   45.9523  267.1157 H   0  0  0  0  0  0  0  0  0  0  0  0
   92.0337   50.9706  269.7917 H   0  0  0  0  0  0  0  0  0  0  0  0
   92.5468   53.1562  270.8137 H   0  0  0  0  0  0  0  0  0  0  0  0
   95.2194   51.5216  266.9875 H   0  0  0  0  0  0  0  0  0  0  0  0
   90.6567   48.1222  263.7063 H   0  0  0  0  0  0  0  0  0  0  0  0
   91.3353   46.5961  264.3674 H   0  0  0  0  0  0  0  0  0  0  0  0
   88.2145   45.3916  262.3317 H   0  0  0  0  0  0  0  0  0  0  0  0
   86.8988   45.6345  264.3931 H   0  0  0  0  0  0  0  0  0  0  0  0
   87.8672   45.6434  269.0110 H   0  0  0  0  0  0  0  0  0  0  0  0
   88.3033   44.6709  267.5652 H   0  0  0  0  0  0  0  0  0  0  0  0
   89.4083   45.9627  268.1454 H   0  0  0  0  0  0  0  0  0  0  0  0
   94.4609   54.4941  269.9751 H   0  0  0  0  0  0  0  0  0  0  0  0
   96.8566   56.3663  267.9372 H   0  0  0  0  0  0  0  0  0  0  0  0
   95.0902   56.1513  268.1824 H   0  0  0  0  0  0  0  0  0  0  0  0
   96.2427   55.6511  269.4663 H   0  0  0  0  0  0  0  0  0  0  0  0
  1  4  2  0  0  0  0
  1  6  1  0  0  0  0
  1 11  1  0  0  0  0
  2  3  2  0  0  0  0
  2  5  1  0  0  0  0
  3  4  1  0  0  0  0
  3 15  1  0  0  0  0
  5  6  2  0  0  0  0
  5 10  1  0  0  0  0
  6  7  1  0  0  0  0
  7  8  2  0  0  0  0
  8  9  1  0  0  0  0
  9 10  2  0  0  0  0
 11 12  2  0  0  0  0
 11 14  1  0  0  0  0
 12 13  1  0  0  0  0
 13 27  2  0  0  0  0
 14 26  2  0  0  0  0
 15 16  2  3  0  0  0
 16 17  1  0  0  0  0
 16 21  1  0  0  0  0
 17 18  1  0  0  0  0
 18 19  2  0  0  0  0
 19 20  1  0  0  0  0
 20 21  2  0  0  0  0
 21 22  1  0  0  0  0
 22 23  2  0  0  0  0
 22 24  2  0  0  0  0
 22 25  1  0  0  0  0
 26 27  1  0  0  0  0
 26 29  1  0  0  0  0
 28 29  1  0  0  0  0
  2 30  1  0  0  0  0
  4 31  1  0  0  0  0
  8 32  1  0  0  0  0
  9 33  1  0  0  0  0
 12 34  1  0  0  0  0
 13 35  1  0  0  0  0
 14 36  1  0  0  0  0
 17 37  1  0  0  0  0
 17 38  1  0  0  0  0
 19 39  1  0  0  0  0
 20 40  1  0  0  0  0
 25 41  1  0  0  0  0
 25 42  1  0  0  0  0
 25 43  1  0  0  0  0
 27 44  1  0  0  0  0
 28 45  1  0  0  0  0
 28 46  1  0  0  0  0
 28 47  1  0  0  0  0
M  END
> <ID>
42

> <IC50[uM]>
0.622

$$$$
42
  -OEChem-05192314313D
 Structure written by MMmdl.
 47 50  0     1  0  0  0  0  0999 V2000
   93.2875   49.7838  267.6770 C   0  0  0  0  0  0  0  0  0  0  0  0
   92.5724   47.3125  266.4966 C   0  0  0  0  0  0  0  0  0  0  0  0
   91.6143   48.3091  266.6745 C   0  0  0  0  0  0  0  0  0  0  0  0
   91.9734   49.5126  267.2693 C   0  0  0  0  0  0  0  0  0  0  0  0
   93.8983   47.5150  266.9402 C   0  0  0  0  0  0  0  0  0  0  0  0
   94.2747   48.7631  267.5237 C   0  0  3  0  0  0  0  0  0  0  0  0
   95.5632   48.9601  267.9551 N   0  0  0  0  0  0  0  0  0  0  0  0
   96.4531   47.9523  267.7789 C   0  0  0  0  0  0  0  0  0  0  0  0
   96.0721   46.7327  267.2263 C   0  0  0  0  0  0  0  0  0  0  0  0
   94.8009   46.4988  266.8238 N   0  0  0  0  0  0  0  0  0  0  0  0
   93.5911   51.0854  268.3137 C   0  0  0  0  0  0  0  0  0  0  0  0
   92.8469   51.5645  269.4014 C   0  0  0  0  0  0  0  0  0  0  0  0
   93.1400   52.7949  269.9867 C   0  0  0  0  0  0  0  0  0  0  0  0
   94.6339   51.8738  267.8239 C   0  0  0  0  0  0  0  0  0  0  0  0
   90.2801   48.1021  266.3129 N   0  0  0  0  0  0  0  0  0  0  0  0
   89.7132   47.3295  265.2851 C   0  0  0  0  0  0  0  0  0  0  0  0
   90.4095   47.1212  264.0895 C   0  0  0  0  0  0  0  0  0  0  0  0
   89.8943   46.4354  263.0351 N   0  0  0  0  0  0  0  0  0  0  0  0
   88.6421   45.9295  263.1649 C   0  0  0  0  0  0  0  0  0  0  0  0
   87.8836   46.0722  264.3230 C   0  0  0  0  0  0  0  0  0  0  0  0
   88.4211   46.7936  265.3951 C   0  0  0  0  0  0  0  0  0  0  0  0
   87.4795   46.9124  266.9240 S   0  0  0  0  0  0  0  0  0  0  0  0
   86.1188   46.4328  266.6652 O   0  0  0  0  0  0  0  0  0  0  0  0
   87.6945   48.2548  267.4760 O   0  0  0  0  0  0  0  0  0  0  0  0
   88.3552   45.6686  268.0255 C   0  0  0  0  0  0  0  0  0  0  0  0
   94.9298   53.1047  268.3962 C   0  0  0  0  0  0  0  0  0  0  0  0
   94.2024   53.5588  269.5010 C   0  0  0  0  0  0  0  0  0  0  0  0
   96.0833   55.7215  268.3802 C   0  0  0  0  0  0  0  0  0  0  0  0
   96.1817   54.0755  267.6506 S   0  0  0  0  0  0  0  0  0  0  0  0
   92.3004   46.3831  266.0184 H   0  0  0  0  0  0  0  0  0  0  0  0
   91.2141   50.2652  267.4229 H   0  0  0  0  0  0  0  0  0  0  0  0
   94.5384   49.1565  266.5309 H   0  0  0  0  0  0  0  0  0  0  0  0
   97.4815   48.0992  268.0742 H   0  0  0  0  0  0  0  0  0  0  0  0
   96.8104   45.9523  267.1157 H   0  0  0  0  0  0  0  0  0  0  0  0
   92.0337   50.9706  269.7917 H   0  0  0  0  0  0  0  0  0  0  0  0
   92.5468   53.1562  270.8137 H   0  0  0  0  0  0  0  0  0  0  0  0
   95.2194   51.5216  266.9875 H   0  0  0  0  0  0  0  0  0  0  0  0
   91.4068   47.5258  263.9999 H   0  0  0  0  0  0  0  0  0  0  0  0
   88.2145   45.3916  262.3317 H   0  0  0  0  0  0  0  0  0  0  0  0
   86.8988   45.6345  264.3931 H   0  0  0  0  0  0  0  0  0  0  0  0
   87.8672   45.6434  269.0110 H   0  0  0  0  0  0  0  0  0  0  0  0
   88.3033   44.6709  267.5652 H   0  0  0  0  0  0  0  0  0  0  0  0
   89.4083   45.9627  268.1454 H   0  0  0  0  0  0  0  0  0  0  0  0
   94.4609   54.4941  269.9751 H   0  0  0  0  0  0  0  0  0  0  0  0
   96.8566   56.3663  267.9372 H   0  0  0  0  0  0  0  0  0  0  0  0
   95.0902   56.1513  268.1824 H   0  0  0  0  0  0  0  0  0  0  0  0
   96.2427   55.6511  269.4663 H   0  0  0  0  0  0  0  0  0  0  0  0
  1  4  2  0  0  0  0
  1  6  1  0  0  0  0
  1 11  1  0  0  0  0
  2  3  1  0  0  0  0
  2  5  2  0  0  0  0
  3  4  1  0  0  0  0
  3 15  2  3  0  0  0
  5  6  1  0  0  0  0
  5 10  1  0  0  0  0
  6  7  1  0  0  0  0
  7  8  2  0  0  0  0
  8  9  1  0  0  0  0
  9 10  2  0  0  0  0
 11 12  2  0  0  0  0
 11 14  1  0  0  0  0
 12 13  1  0  0  0  0
 13 27  2  0  0  0  0
 14 26  2  0  0  0  0
 15 16  1  0  0  0  0
 16 17  2  0  0  0  0
 16 21  1  0  0  0  0
 17 18  1  0  0  0  0
 18 19  2  0  0  0  0
 19 20  1  0  0  0  0
 20 21  2  0  0  0  0
 21 22  1  0  0  0  0
 22 23  2  0  0  0  0
 22 24  2  0  0  0  0
 22 25  1  0  0  0  0
 26 27  1  0  0  0  0
 26 29  1  0  0  0  0
 28 29  1  0  0  0  0
  2 30  1  0  0  0  0
  4 31  1  0  0  0  0
  6 32  1  0  0  0  0
  8 33  1  0  0  0  0
  9 34  1  0  0  0  0
 12 35  1  0  0  0  0
 13 36  1  0  0  0  0
 14 37  1  0  0  0  0
 17 38  1  0  0  0  0
 19 39  1  0  0  0  0
 20 40  1  0  0  0  0
 25 41  1  0  0  0  0
 25 42  1  0  0  0  0
 25 43  1  0  0  0  0
 27 44  1  0  0  0  0
 28 45  1  0  0  0  0
 28 46  1  0  0  0  0
 28 47  1  0  0  0  0
M  END
> <ID>
42

> <IC50[uM]>
0.622

$$$$
42
  -OEChem-05192314313D
 Structure written by MMmdl.
 47 50  0     0  0  0  0  0  0999 V2000
   93.2875   49.7838  267.6770 C   0  0  0  0  0  0  0  0  0  0  0  0
   92.5724   47.3125  266.4966 C   0  0  0  0  0  0  0  0  0  0  0  0
   91.6143   48.3091  266.6745 C   0  0  0  0  0  0  0  0  0  0  0  0
   91.9734   49.5126  267.2693 C   0  0  0  0  0  0  0  0  0  0  0  0
   93.8983   47.5150  266.9402 C   0  0  0  0  0  0  0  0  0  0  0  0
   94.2747   48.7631  267.5237 C   0  0  0  0  0  0  0  0  0  0  0  0
   95.5632   48.9601  267.9551 N   0  0  0  0  0  0  0  0  0  0  0  0
   96.4531   47.9523  267.7789 C   0  0  0  0  0  0  0  0  0  0  0  0
   96.0721   46.7327  267.2263 C   0  0  0  0  0  0  0  0  0  0  0  0
   94.8009   46.4988  266.8238 N   0  0  0  0  0  0  0  0  0  0  0  0
   93.5911   51.0854  268.3137 C   0  0  0  0  0  0  0  0  0  0  0  0
   92.8469   51.5645  269.4014 C   0  0  0  0  0  0  0  0  0  0  0  0
   93.1400   52.7949  269.9867 C   0  0  0  0  0  0  0  0  0  0  0  0
   94.6339   51.8738  267.8239 C   0  0  0  0  0  0  0  0  0  0  0  0
   90.2801   48.1021  266.3129 N   0  0  0  0  0  0  0  0  0  0  0  0
   89.7132   47.3295  265.2851 C   0  0  0  0  0  0  0  0  0  0  0  0
   90.4095   47.1212  264.0895 C   0  0  0  0  0  0  0  0  0  0  0  0
   89.8943   46.4354  263.0351 N   0  0  0  0  0  0  0  0  0  0  0  0
   88.6421   45.9295  263.1649 C   0  0  0  0  0  0  0  0  0  0  0  0
   87.8836   46.0722  264.3230 C   0  0  0  0  0  0  0  0  0  0  0  0
   88.4211   46.7936  265.3951 C   0  0  0  0  0  0  0  0  0  0  0  0
   87.4795   46.9124  266.9240 S   0  0  0  0  0  0  0  0  0  0  0  0
   86.1188   46.4328  266.6652 O   0  0  0  0  0  0  0  0  0  0  0  0
   87.6945   48.2548  267.4760 O   0  0  0  0  0  0  0  0  0  0  0  0
   88.3552   45.6686  268.0255 C   0  0  0  0  0  0  0  0  0  0  0  0
   94.9298   53.1047  268.3962 C   0  0  0  0  0  0  0  0  0  0  0  0
   94.2024   53.5588  269.5010 C   0  0  0  0  0  0  0  0  0  0  0  0
   96.0833   55.7215  268.3802 C   0  0  0  0  0  0  0  0  0  0  0  0
   96.1817   54.0755  267.6506 S   0  0  0  0  0  0  0  0  0  0  0  0
   92.3004   46.3831  266.0184 H   0  0  0  0  0  0  0  0  0  0  0  0
   91.2141   50.2652  267.4229 H   0  0  0  0  0  0  0  0  0  0  0  0
   97.2488   48.3507  267.1323 H   0  0  0  0  0  0  0  0  0  0  0  0
   96.8669   47.7267  268.7728 H   0  0  0  0  0  0  0  0  0  0  0  0
   96.8104   45.9523  267.1157 H   0  0  0  0  0  0  0  0  0  0  0  0
   92.0337   50.9706  269.7917 H   0  0  0  0  0  0  0  0  0  0  0  0
   92.5468   53.1562  270.8137 H   0  0  0  0  0  0  0  0  0  0  0  0
   95.2194   51.5216  266.9875 H   0  0  0  0  0  0  0  0  0  0  0  0
   91.4068   47.5258  263.9999 H   0  0  0  0  0  0  0  0  0  0  0  0
   88.2145   45.3916  262.3317 H   0  0  0  0  0  0  0  0  0  0  0  0
   86.8988   45.6345  264.3931 H   0  0  0  0  0  0  0  0  0  0  0  0
   87.8672   45.6434  269.0110 H   0  0  0  0  0  0  0  0  0  0  0  0
   88.3033   44.6709  267.5652 H   0  0  0  0  0  0  0  0  0  0  0  0
   89.4083   45.9627  268.1454 H   0  0  0  0  0  0  0  0  0  0  0  0
   94.4609   54.4941  269.9751 H   0  0  0  0  0  0  0  0  0  0  0  0
   96.8566   56.3663  267.9372 H   0  0  0  0  0  0  0  0  0  0  0  0
   95.0902   56.1513  268.1824 H   0  0  0  0  0  0  0  0  0  0  0  0
   96.2427   55.6511  269.4663 H   0  0  0  0  0  0  0  0  0  0  0  0
  1  4  2  0  0  0  0
  1  6  1  0  0  0  0
  1 11  1  0  0  0  0
  2  3  1  0  0  0  0
  2  5  2  0  0  0  0
  3  4  1  0  0  0  0
  3 15  2  3  0  0  0
  5  6  1  0  0  0  0
  5 10  1  0  0  0  0
  6  7  2  0  0  0  0
  7  8  1  0  0  0  0
  8  9  1  0  0  0  0
  9 10  2  0  0  0  0
 11 12  2  0  0  0  0
 11 14  1  0  0  0  0
 12 13  1  0  0  0  0
 13 27  2  0  0  0  0
 14 26  2  0  0  0  0
 15 16  1  0  0  0  0
 16 17  2  0  0  0  0
 16 21  1  0  0  0  0
 17 18  1  0  0  0  0
 18 19  2  0  0  0  0
 19 20  1  0  0  0  0
 20 21  2  0  0  0  0
 21 22  1  0  0  0  0
 22 23  2  0  0  0  0
 22 24  2  0  0  0  0
 22 25  1  0  0  0  0
 26 27  1  0  0  0  0
 26 29  1  0  0  0  0
 28 29  1  0  0  0  0
  2 30  1  0  0  0  0
  4 31  1  0  0  0  0
  8 32  1  0  0  0  0
  8 33  1  0  0  0  0
  9 34  1  0  0  0  0
 12 35  1  0  0  0  0
 13 36  1  0  0  0  0
 14 37  1  0  0  0  0
 17 38  1  0  0  0  0
 19 39  1  0  0  0  0
 20 40  1  0  0  0  0
 25 41  1  0  0  0  0
 25 42  1  0  0  0  0
 25 43  1  0  0  0  0
 27 44  1  0  0  0  0
 28 45  1  0  0  0  0
 28 46  1  0  0  0  0
 28 47  1  0  0  0  0
M  END
> <ID>
42

> <IC50[uM]>
0.622

$$$$
