60
  -OEChem-05192314323D
 Structure written by MMmdl.
 54 58  0     0  0  0  0  0  0999 V2000
   92.6660   47.2613  266.3406 C   0  0  0  0  0  0  0  0  0  0  0  0
   91.6770   48.2220  266.5146 C   0  0  0  0  0  0  0  0  0  0  0  0
   91.9879   49.4167  267.1425 C   0  0  0  0  0  0  0  0  0  0  0  0
   93.2709   49.6946  267.6279 C   0  0  0  0  0  0  0  0  0  0  0  0
   93.9719   47.4800  266.8354 C   0  0  0  0  0  0  0  0  0  0  0  0
   94.2913   48.7152  267.4805 C   0  0  0  0  0  0  0  0  0  0  0  0
   95.5450   48.9221  267.9883 N   0  0  0  0  0  0  0  0  0  0  0  0
   96.4599   47.9343  267.8372 C   0  0  0  0  0  0  0  0  0  0  0  0
   96.1350   46.7275  267.2279 C   0  0  0  0  0  0  0  0  0  0  0  0
   94.9013   46.4918  266.7230 N   0  0  0  0  0  0  0  0  0  0  0  0
   90.3487   47.9881  266.1437 N   0  0  0  0  0  0  0  0  0  0  0  0
   89.8102   47.2444  265.0862 C   0  0  0  0  0  0  0  0  0  0  0  0
   90.5239   47.0994  263.8922 C   0  0  0  0  0  0  0  0  0  0  0  0
   90.0430   46.4477  262.8068 N   0  0  0  0  0  0  0  0  0  0  0  0
   88.8025   45.9112  262.8993 C   0  0  0  0  0  0  0  0  0  0  0  0
   88.0213   45.9914  264.0502 C   0  0  0  0  0  0  0  0  0  0  0  0
   88.5247   46.6790  265.1618 C   0  0  0  0  0  0  0  0  0  0  0  0
   87.5572   46.7485  266.6776 S   0  0  0  0  0  0  0  0  0  0  0  0
   87.9494   45.5860  267.4786 O   0  0  0  0  0  0  0  0  0  0  0  0
   87.7078   48.0995  267.2278 O   0  0  0  0  0  0  0  0  0  0  0  0
   85.7583   46.5374  266.1602 C   0  0  0  0  0  0  0  0  0  0  0  0
   93.4545   50.9305  268.4147 C   0  0  0  0  0  0  0  0  0  0  0  0
   94.4202   51.9117  268.1364 C   0  0  0  0  0  0  0  0  0  0  0  0
   94.4695   53.0834  268.9040 C   0  0  0  0  0  0  0  0  0  0  0  0
   92.5838   51.1138  269.4835 C   0  0  0  0  0  0  0  0  0  0  0  0
   92.6365   52.2501  270.2532 C   0  0  0  0  0  0  0  0  0  0  0  0
   93.5640   53.2265  269.9558 C   0  0  0  0  0  0  0  0  0  0  0  0
   93.4148   54.3422  270.7273 O   0  0  0  0  0  0  0  0  0  0  0  0
   92.4599   54.0057  271.7365 C   0  0  0  0  0  0  0  0  0  0  0  0
   91.7186   52.6858  271.3365 C   0  0  0  0  0  0  0  0  0  0  0  0
   91.6600   51.7353  272.5275 C   0  0  0  0  0  0  0  0  0  0  0  0
   90.2882   52.7274  270.7487 C   0  0  0  0  0  0  0  0  0  0  0  0
   92.4353   46.3414  265.8239 H   0  0  0  0  0  0  0  0  0  0  0  0
   91.2133   50.1598  267.2617 H   0  0  0  0  0  0  0  0  0  0  0  0
   97.4659   48.0880  268.1987 H   0  0  0  0  0  0  0  0  0  0  0  0
   96.8879   45.9566  267.1554 H   0  0  0  0  0  0  0  0  0  0  0  0
   89.6693   48.4255  266.7328 H   0  0  0  0  0  0  0  0  0  0  0  0
   91.5123   47.5306  263.8325 H   0  0  0  0  0  0  0  0  0  0  0  0
   88.3997   45.3965  262.0395 H   0  0  0  0  0  0  0  0  0  0  0  0
   87.0447   45.5315  264.0846 H   0  0  0  0  0  0  0  0  0  0  0  0
   85.1136   46.5715  267.0508 H   0  0  0  0  0  0  0  0  0  0  0  0
   85.4770   47.3488  265.4728 H   0  0  0  0  0  0  0  0  0  0  0  0
   85.6337   45.5686  265.6544 H   0  0  0  0  0  0  0  0  0  0  0  0
   95.1245   51.7634  267.3312 H   0  0  0  0  0  0  0  0  0  0  0  0
   95.1911   53.8570  268.6865 H   0  0  0  0  0  0  0  0  0  0  0  0
   91.8546   50.3505  269.7119 H   0  0  0  0  0  0  0  0  0  0  0  0
   92.9773   53.8590  272.6961 H   0  0  0  0  0  0  0  0  0  0  0  0
   91.7284   54.8213  271.8353 H   0  0  0  0  0  0  0  0  0  0  0  0
   90.9610   52.1310  273.2791 H   0  0  0  0  0  0  0  0  0  0  0  0
   91.3150   50.7466  272.1908 H   0  0  0  0  0  0  0  0  0  0  0  0
   92.6620   51.6423  272.9718 H   0  0  0  0  0  0  0  0  0  0  0  0
   89.5804   53.0475  271.5275 H   0  0  0  0  0  0  0  0  0  0  0  0
   90.2570   53.4387  269.9102 H   0  0  0  0  0  0  0  0  0  0  0  0
   90.0100   51.7254  270.3900 H   0  0  0  0  0  0  0  0  0  0  0  0
  1  2  2  0  0  0  0
  1  5  1  0  0  0  0
  2  3  1  0  0  0  0
  2 11  1  0  0  0  0
  3  4  2  0  0  0  0
  4  6  1  0  0  0  0
  4 22  1  0  0  0  0
  5  6  2  0  0  0  0
  5 10  1  0  0  0  0
  6  7  1  0  0  0  0
  7  8  2  0  0  0  0
  8  9  1  0  0  0  0
  9 10  2  0  0  0  0
 11 12  1  0  0  0  0
 12 13  2  0  0  0  0
 12 17  1  0  0  0  0
 13 14  1  0  0  0  0
 14 15  2  0  0  0  0
 15 16  1  0  0  0  0
 16 17  2  0  0  0  0
 17 18  1  0  0  0  0
 18 19  2  0  0  0  0
 18 20  2  0  0  0  0
 18 21  1  0  0  0  0
 22 23  2  0  0  0  0
 22 25  1  0  0  0  0
 23 24  1  0  0  0  0
 24 27  2  0  0  0  0
 25 26  2  0  0  0  0
 26 27  1  0  0  0  0
 26 30  1  0  0  0  0
 27 28  1  0  0  0  0
 28 29  1  0  0  0  0
 29 30  1  0  0  0  0
 30 31  1  0  0  0  0
 30 32  1  0  0  0  0
  1 33  1  0  0  0  0
  3 34  1  0  0  0  0
  8 35  1  0  0  0  0
  9 36  1  0  0  0  0
 11 37  1  0  0  0  0
 13 38  1  0  0  0  0
 15 39  1  0  0  0  0
 16 40  1  0  0  0  0
 21 41  1  0  0  0  0
 21 42  1  0  0  0  0
 21 43  1  0  0  0  0
 23 44  1  0  0  0  0
 24 45  1  0  0  0  0
 25 46  1  0  0  0  0
 29 47  1  0  0  0  0
 29 48  1  0  0  0  0
 31 49  1  0  0  0  0
 31 50  1  0  0  0  0
 31 51  1  0  0  0  0
 32 52  1  0  0  0  0
 32 53  1  0  0  0  0
 32 54  1  0  0  0  0
M  END
> <ID>
60

> <IC50[uM]>
1.073

$$$$
60
  -OEChem-05192314323D
 Structure written by MMmdl.
 54 58  0     0  0  0  0  0  0999 V2000
   92.6660   47.2613  266.3406 C   0  0  0  0  0  0  0  0  0  0  0  0
   91.6770   48.2220  266.5146 C   0  0  0  0  0  0  0  0  0  0  0  0
   91.9879   49.4167  267.1425 C   0  0  0  0  0  0  0  0  0  0  0  0
   93.2709   49.6946  267.6279 C   0  0  0  0  0  0  0  0  0  0  0  0
   93.9719   47.4800  266.8354 C   0  0  0  0  0  0  0  0  0  0  0  0
   94.2913   48.7152  267.4805 C   0  0  0  0  0  0  0  0  0  0  0  0
   95.5450   48.9221  267.9883 N   0  0  0  0  0  0  0  0  0  0  0  0
   96.4599   47.9343  267.8372 C   0  0  0  0  0  0  0  0  0  0  0  0
   96.1350   46.7275  267.2279 C   0  0  0  0  0  0  0  0  0  0  0  0
   94.9013   46.4918  266.7230 N   0  0  0  0  0  0  0  0  0  0  0  0
   90.3487   47.9881  266.1437 N   0  0  0  0  0  0  0  0  0  0  0  0
   89.8102   47.2444  265.0862 C   0  0  0  0  0  0  0  0  0  0  0  0
   90.5239   47.0994  263.8922 C   0  0  0  0  0  0  0  0  0  0  0  0
   90.0430   46.4477  262.8068 N   0  0  0  0  0  0  0  0  0  0  0  0
   88.8025   45.9112  262.8993 C   0  0  0  0  0  0  0  0  0  0  0  0
   88.0213   45.9914  264.0502 C   0  0  0  0  0  0  0  0  0  0  0  0
   88.5247   46.6790  265.1618 C   0  0  0  0  0  0  0  0  0  0  0  0
   87.5572   46.7485  266.6776 S   0  0  0  0  0  0  0  0  0  0  0  0
   87.9494   45.5860  267.4786 O   0  0  0  0  0  0  0  0  0  0  0  0
   87.7078   48.0995  267.2278 O   0  0  0  0  0  0  0  0  0  0  0  0
   85.7583   46.5374  266.1602 C   0  0  0  0  0  0  0  0  0  0  0  0
   93.4545   50.9305  268.4147 C   0  0  0  0  0  0  0  0  0  0  0  0
   94.4202   51.9117  268.1364 C   0  0  0  0  0  0  0  0  0  0  0  0
   94.4695   53.0834  268.9040 C   0  0  0  0  0  0  0  0  0  0  0  0
   92.5838   51.1138  269.4835 C   0  0  0  0  0  0  0  0  0  0  0  0
   92.6365   52.2501  270.2532 C   0  0  0  0  0  0  0  0  0  0  0  0
   93.5640   53.2265  269.9558 C   0  0  0  0  0  0  0  0  0  0  0  0
   93.4148   54.3422  270.7273 O   0  0  0  0  0  0  0  0  0  0  0  0
   92.4599   54.0057  271.7365 C   0  0  0  0  0  0  0  0  0  0  0  0
   91.7186   52.6858  271.3365 C   0  0  0  0  0  0  0  0  0  0  0  0
   91.6600   51.7353  272.5275 C   0  0  0  0  0  0  0  0  0  0  0  0
   90.2882   52.7274  270.7487 C   0  0  0  0  0  0  0  0  0  0  0  0
   92.4353   46.3414  265.8239 H   0  0  0  0  0  0  0  0  0  0  0  0
   91.2133   50.1598  267.2617 H   0  0  0  0  0  0  0  0  0  0  0  0
   97.4659   48.0880  268.1987 H   0  0  0  0  0  0  0  0  0  0  0  0
   96.8879   45.9566  267.1554 H   0  0  0  0  0  0  0  0  0  0  0  0
   94.6803   45.6216  266.2826 H   0  0  0  0  0  0  0  0  0  0  0  0
   91.5123   47.5306  263.8325 H   0  0  0  0  0  0  0  0  0  0  0  0
   88.3997   45.3965  262.0395 H   0  0  0  0  0  0  0  0  0  0  0  0
   87.0447   45.5315  264.0846 H   0  0  0  0  0  0  0  0  0  0  0  0
   85.1136   46.5715  267.0508 H   0  0  0  0  0  0  0  0  0  0  0  0
   85.4770   47.3488  265.4728 H   0  0  0  0  0  0  0  0  0  0  0  0
   85.6337   45.5686  265.6544 H   0  0  0  0  0  0  0  0  0  0  0  0
   95.1245   51.7634  267.3312 H   0  0  0  0  0  0  0  0  0  0  0  0
   95.1911   53.8570  268.6865 H   0  0  0  0  0  0  0  0  0  0  0  0
   91.8546   50.3505  269.7119 H   0  0  0  0  0  0  0  0  0  0  0  0
   92.9773   53.8590  272.6961 H   0  0  0  0  0  0  0  0  0  0  0  0
   91.7284   54.8213  271.8353 H   0  0  0  0  0  0  0  0  0  0  0  0
   90.9610   52.1310  273.2791 H   0  0  0  0  0  0  0  0  0  0  0  0
   91.3150   50.7466  272.1908 H   0  0  0  0  0  0  0  0  0  0  0  0
   92.6620   51.6423  272.9718 H   0  0  0  0  0  0  0  0  0  0  0  0
   89.5804   53.0475  271.5275 H   0  0  0  0  0  0  0  0  0  0  0  0
   90.2570   53.4387  269.9102 H   0  0  0  0  0  0  0  0  0  0  0  0
   90.0100   51.7254  270.3900 H   0  0  0  0  0  0  0  0  0  0  0  0
  1  2  1  0  0  0  0
  1  5  2  0  0  0  0
  2  3  1  0  0  0  0
  2 11  2  3  0  0  0
  3  4  2  0  0  0  0
  4  6  1  0  0  0  0
  4 22  1  0  0  0  0
  5  6  1  0  0  0  0
  5 10  1  0  0  0  0
  6  7  2  0  0  0  0
  7  8  1  0  0  0  0
  8  9  2  0  0  0  0
  9 10  1  0  0  0  0
 11 12  1  0  0  0  0
 12 13  2  0  0  0  0
 12 17  1  0  0  0  0
 13 14  1  0  0  0  0
 14 15  2  0  0  0  0
 15 16  1  0  0  0  0
 16 17  2  0  0  0  0
 17 18  1  0  0  0  0
 18 19  2  0  0  0  0
 18 20  2  0  0  0  0
 18 21  1  0  0  0  0
 22 23  2  0  0  0  0
 22 25  1  0  0  0  0
 23 24  1  0  0  0  0
 24 27  2  0  0  0  0
 25 26  2  0  0  0  0
 26 27  1  0  0  0  0
 26 30  1  0  0  0  0
 27 28  1  0  0  0  0
 28 29  1  0  0  0  0
 29 30  1  0  0  0  0
 30 31  1  0  0  0  0
 30 32  1  0  0  0  0
  1 33  1  0  0  0  0
  3 34  1  0  0  0  0
  8 35  1  0  0  0  0
  9 36  1  0  0  0  0
 10 37  1  0  0  0  0
 13 38  1  0  0  0  0
 15 39  1  0  0  0  0
 16 40  1  0  0  0  0
 21 41  1  0  0  0  0
 21 42  1  0  0  0  0
 21 43  1  0  0  0  0
 23 44  1  0  0  0  0
 24 45  1  0  0  0  0
 25 46  1  0  0  0  0
 29 47  1  0  0  0  0
 29 48  1  0  0  0  0
 31 49  1  0  0  0  0
 31 50  1  0  0  0  0
 31 51  1  0  0  0  0
 32 52  1  0  0  0  0
 32 53  1  0  0  0  0
 32 54  1  0  0  0  0
M  END
> <ID>
60

> <IC50[uM]>
1.073

$$$$
60
  -OEChem-05192314323D
 Structure written by MMmdl.
 54 58  0     0  0  0  0  0  0999 V2000
   92.6660   47.2613  266.3406 C   0  0  0  0  0  0  0  0  0  0  0  0
   91.6770   48.2220  266.5146 C   0  0  0  0  0  0  0  0  0  0  0  0
   91.9879   49.4167  267.1425 C   0  0  0  0  0  0  0  0  0  0  0  0
   93.2709   49.6946  267.6279 C   0  0  0  0  0  0  0  0  0  0  0  0
   93.9719   47.4800  266.8354 C   0  0  0  0  0  0  0  0  0  0  0  0
   94.2913   48.7152  267.4805 C   0  0  0  0  0  0  0  0  0  0  0  0
   95.5450   48.9221  267.9883 N   0  0  0  0  0  0  0  0  0  0  0  0
   96.4599   47.9343  267.8372 C   0  0  0  0  0  0  0  0  0  0  0  0
   96.1350   46.7275  267.2279 C   0  0  0  0  0  0  0  0  0  0  0  0
   94.9013   46.4918  266.7230 N   0  0  0  0  0  0  0  0  0  0  0  0
   90.3487   47.9881  266.1437 N   0  0  0  0  0  0  0  0  0  0  0  0
   89.8102   47.2444  265.0862 C   0  0  0  0  0  0  0  0  0  0  0  0
   90.5239   47.0994  263.8922 C   0  0  0  0  0  0  0  0  0  0  0  0
   90.0430   46.4477  262.8068 N   0  0  0  0  0  0  0  0  0  0  0  0
   88.8025   45.9112  262.8993 C   0  0  0  0  0  0  0  0  0  0  0  0
   88.0213   45.9914  264.0502 C   0  0  0  0  0  0  0  0  0  0  0  0
   88.5247   46.6790  265.1618 C   0  0  0  0  0  0  0  0  0  0  0  0
   87.5572   46.7485  266.6776 S   0  0  0  0  0  0  0  0  0  0  0  0
   87.9494   45.5860  267.4786 O   0  0  0  0  0  0  0  0  0  0  0  0
   87.7078   48.0995  267.2278 O   0  0  0  0  0  0  0  0  0  0  0  0
   85.7583   46.5374  266.1602 C   0  0  0  0  0  0  0  0  0  0  0  0
   93.4545   50.9305  268.4147 C   0  0  0  0  0  0  0  0  0  0  0  0
   94.4202   51.9117  268.1364 C   0  0  0  0  0  0  0  0  0  0  0  0
   94.4695   53.0834  268.9040 C   0  0  0  0  0  0  0  0  0  0  0  0
   92.5838   51.1138  269.4835 C   0  0  0  0  0  0  0  0  0  0  0  0
   92.6365   52.2501  270.2532 C   0  0  0  0  0  0  0  0  0  0  0  0
   93.5640   53.2265  269.9558 C   0  0  0  0  0  0  0  0  0  0  0  0
   93.4148   54.3422  270.7273 O   0  0  0  0  0  0  0  0  0  0  0  0
   92.4599   54.0057  271.7365 C   0  0  0  0  0  0  0  0  0  0  0  0
   91.7186   52.6858  271.3365 C   0  0  0  0  0  0  0  0  0  0  0  0
   91.6600   51.7353  272.5275 C   0  0  0  0  0  0  0  0  0  0  0  0
   90.2882   52.7274  270.7487 C   0  0  0  0  0  0  0  0  0  0  0  0
   92.2984   46.3404  266.8168 H   0  0  0  0  0  0  0  0  0  0  0  0
   92.7622   47.1004  265.2567 H   0  0  0  0  0  0  0  0  0  0  0  0
   91.2133   50.1598  267.2617 H   0  0  0  0  0  0  0  0  0  0  0  0
   97.4659   48.0880  268.1987 H   0  0  0  0  0  0  0  0  0  0  0  0
   96.8879   45.9566  267.1554 H   0  0  0  0  0  0  0  0  0  0  0  0
   91.5123   47.5306  263.8325 H   0  0  0  0  0  0  0  0  0  0  0  0
   88.3997   45.3965  262.0395 H   0  0  0  0  0  0  0  0  0  0  0  0
   87.0447   45.5315  264.0846 H   0  0  0  0  0  0  0  0  0  0  0  0
   85.1136   46.5715  267.0508 H   0  0  0  0  0  0  0  0  0  0  0  0
   85.4770   47.3488  265.4728 H   0  0  0  0  0  0  0  0  0  0  0  0
   85.6337   45.5686  265.6544 H   0  0  0  0  0  0  0  0  0  0  0  0
   95.1245   51.7634  267.3312 H   0  0  0  0  0  0  0  0  0  0  0  0
   95.1911   53.8570  268.6865 H   0  0  0  0  0  0  0  0  0  0  0  0
   91.8546   50.3505  269.7119 H   0  0  0  0  0  0  0  0  0  0  0  0
   92.9773   53.8590  272.6961 H   0  0  0  0  0  0  0  0  0  0  0  0
   91.7284   54.8213  271.8353 H   0  0  0  0  0  0  0  0  0  0  0  0
   90.9610   52.1310  273.2791 H   0  0  0  0  0  0  0  0  0  0  0  0
   91.3150   50.7466  272.1908 H   0  0  0  0  0  0  0  0  0  0  0  0
   92.6620   51.6423  272.9718 H   0  0  0  0  0  0  0  0  0  0  0  0
   89.5804   53.0475  271.5275 H   0  0  0  0  0  0  0  0  0  0  0  0
   90.2570   53.4387  269.9102 H   0  0  0  0  0  0  0  0  0  0  0  0
   90.0100   51.7254  270.3900 H   0  0  0  0  0  0  0  0  0  0  0  0
  1  2  1  0  0  0  0
  1  5  1  0  0  0  0
  2  3  1  0  0  0  0
  2 11  2  3  0  0  0
  3  4  2  0  0  0  0
  4  6  1  0  0  0  0
  4 22  1  0  0  0  0
  5  6  2  0  0  0  0
  5 10  1  0  0  0  0
  6  7  1  0  0  0  0
  7  8  2  0  0  0  0
  8  9  1  0  0  0  0
  9 10  2  0  0  0  0
 11 12  1  0  0  0  0
 12 13  2  0  0  0  0
 12 17  1  0  0  0  0
 13 14  1  0  0  0  0
 14 15  2  0  0  0  0
 15 16  1  0  0  0  0
 16 17  2  0  0  0  0
 17 18  1  0  0  0  0
 18 19  2  0  0  0  0
 18 20  2  0  0  0  0
 18 21  1  0  0  0  0
 22 23  2  0  0  0  0
 22 25  1  0  0  0  0
 23 24  1  0  0  0  0
 24 27  2  0  0  0  0
 25 26  2  0  0  0  0
 26 27  1  0  0  0  0
 26 30  1  0  0  0  0
 27 28  1  0  0  0  0
 28 29  1  0  0  0  0
 29 30  1  0  0  0  0
 30 31  1  0  0  0  0
 30 32  1  0  0  0  0
  1 33  1  0  0  0  0
  1 34  1  0  0  0  0
  3 35  1  0  0  0  0
  8 36  1  0  0  0  0
  9 37  1  0  0  0  0
 13 38  1  0  0  0  0
 15 39  1  0  0  0  0
 16 40  1  0  0  0  0
 21 41  1  0  0  0  0
 21 42  1  0  0  0  0
 21 43  1  0  0  0  0
 23 44  1  0  0  0  0
 24 45  1  0  0  0  0
 25 46  1  0  0  0  0
 29 47  1  0  0  0  0
 29 48  1  0  0  0  0
 31 49  1  0  0  0  0
 31 50  1  0  0  0  0
 31 51  1  0  0  0  0
 32 52  1  0  0  0  0
 32 53  1  0  0  0  0
 32 54  1  0  0  0  0
M  END
> <ID>
60

> <IC50[uM]>
1.073

$$$$
60
  -OEChem-05192314323D
 Structure written by MMmdl.
 54 58  0     0  0  0  0  0  0999 V2000
   92.6660   47.2613  266.3406 C   0  0  0  0  0  0  0  0  0  0  0  0
   91.6770   48.2220  266.5146 C   0  0  0  0  0  0  0  0  0  0  0  0
   91.9879   49.4167  267.1425 C   0  0  0  0  0  0  0  0  0  0  0  0
   93.2709   49.6946  267.6279 C   0  0  0  0  0  0  0  0  0  0  0  0
   93.9719   47.4800  266.8354 C   0  0  0  0  0  0  0  0  0  0  0  0
   94.2913   48.7152  267.4805 C   0  0  0  0  0  0  0  0  0  0  0  0
   95.5450   48.9221  267.9883 N   0  0  0  0  0  0  0  0  0  0  0  0
   96.4599   47.9343  267.8372 C   0  0  0  0  0  0  0  0  0  0  0  0
   96.1350   46.7275  267.2279 C   0  0  0  0  0  0  0  0  0  0  0  0
   94.9013   46.4918  266.7230 N   0  0  0  0  0  0  0  0  0  0  0  0
   90.3487   47.9881  266.1437 N   0  0  0  0  0  0  0  0  0  0  0  0
   89.8102   47.2444  265.0862 C   0  0  0  0  0  0  0  0  0  0  0  0
   90.5239   47.0994  263.8922 C   0  0  0  0  0  0  0  0  0  0  0  0
   90.0430   46.4477  262.8068 N   0  0  0  0  0  0  0  0  0  0  0  0
   88.8025   45.9112  262.8993 C   0  0  0  0  0  0  0  0  0  0  0  0
   88.0213   45.9914  264.0502 C   0  0  0  0  0  0  0  0  0  0  0  0
   88.5247   46.6790  265.1618 C   0  0  0  0  0  0  0  0  0  0  0  0
   87.5572   46.7485  266.6776 S   0  0  0  0  0  0  0  0  0  0  0  0
   87.9494   45.5860  267.4786 O   0  0  0  0  0  0  0  0  0  0  0  0
   87.7078   48.0995  267.2278 O   0  0  0  0  0  0  0  0  0  0  0  0
   85.7583   46.5374  266.1602 C   0  0  0  0  0  0  0  0  0  0  0  0
   93.4545   50.9305  268.4147 C   0  0  0  0  0  0  0  0  0  0  0  0
   94.4202   51.9117  268.1364 C   0  0  0  0  0  0  0  0  0  0  0  0
   94.4695   53.0834  268.9040 C   0  0  0  0  0  0  0  0  0  0  0  0
   92.5838   51.1138  269.4835 C   0  0  0  0  0  0  0  0  0  0  0  0
   92.6365   52.2501  270.2532 C   0  0  0  0  0  0  0  0  0  0  0  0
   93.5640   53.2265  269.9558 C   0  0  0  0  0  0  0  0  0  0  0  0
   93.4148   54.3422  270.7273 O   0  0  0  0  0  0  0  0  0  0  0  0
   92.4599   54.0057  271.7365 C   0  0  0  0  0  0  0  0  0  0  0  0
   91.7186   52.6858  271.3365 C   0  0  0  0  0  0  0  0  0  0  0  0
   91.6600   51.7353  272.5275 C   0  0  0  0  0  0  0  0  0  0  0  0
   90.2882   52.7274  270.7487 C   0  0  0  0  0  0  0  0  0  0  0  0
   92.4353   46.3414  265.8239 H   0  0  0  0  0  0  0  0  0  0  0  0
   91.7546   50.2125  266.4198 H   0  0  0  0  0  0  0  0  0  0  0  0
   91.3102   49.4948  268.0054 H   0  0  0  0  0  0  0  0  0  0  0  0
   97.4659   48.0880  268.1987 H   0  0  0  0  0  0  0  0  0  0  0  0
   96.8879   45.9566  267.1554 H   0  0  0  0  0  0  0  0  0  0  0  0
   91.5123   47.5306  263.8325 H   0  0  0  0  0  0  0  0  0  0  0  0
   88.3997   45.3965  262.0395 H   0  0  0  0  0  0  0  0  0  0  0  0
   87.0447   45.5315  264.0846 H   0  0  0  0  0  0  0  0  0  0  0  0
   85.1136   46.5715  267.0508 H   0  0  0  0  0  0  0  0  0  0  0  0
   85.4770   47.3488  265.4728 H   0  0  0  0  0  0  0  0  0  0  0  0
   85.6337   45.5686  265.6544 H   0  0  0  0  0  0  0  0  0  0  0  0
   95.1245   51.7634  267.3312 H   0  0  0  0  0  0  0  0  0  0  0  0
   95.1911   53.8570  268.6865 H   0  0  0  0  0  0  0  0  0  0  0  0
   91.8546   50.3505  269.7119 H   0  0  0  0  0  0  0  0  0  0  0  0
   92.9773   53.8590  272.6961 H   0  0  0  0  0  0  0  0  0  0  0  0
   91.7284   54.8213  271.8353 H   0  0  0  0  0  0  0  0  0  0  0  0
   90.9610   52.1310  273.2791 H   0  0  0  0  0  0  0  0  0  0  0  0
   91.3150   50.7466  272.1908 H   0  0  0  0  0  0  0  0  0  0  0  0
   92.6620   51.6423  272.9718 H   0  0  0  0  0  0  0  0  0  0  0  0
   89.5804   53.0475  271.5275 H   0  0  0  0  0  0  0  0  0  0  0  0
   90.2570   53.4387  269.9102 H   0  0  0  0  0  0  0  0  0  0  0  0
   90.0100   51.7254  270.3900 H   0  0  0  0  0  0  0  0  0  0  0  0
  1  2  1  0  0  0  0
  1  5  2  0  0  0  0
  2  3  1  0  0  0  0
  2 11  2  3  0  0  0
  3  4  1  0  0  0  0
  4  6  2  0  0  0  0
  4 22  1  0  0  0  0
  5  6  1  0  0  0  0
  5 10  1  0  0  0  0
  6  7  1  0  0  0  0
  7  8  2  0  0  0  0
  8  9  1  0  0  0  0
  9 10  2  0  0  0  0
 11 12  1  0  0  0  0
 12 13  2  0  0  0  0
 12 17  1  0  0  0  0
 13 14  1  0  0  0  0
 14 15  2  0  0  0  0
 15 16  1  0  0  0  0
 16 17  2  0  0  0  0
 17 18  1  0  0  0  0
 18 19  2  0  0  0  0
 18 20  2  0  0  0  0
 18 21  1  0  0  0  0
 22 23  2  0  0  0  0
 22 25  1  0  0  0  0
 23 24  1  0  0  0  0
 24 27  2  0  0  0  0
 25 26  2  0  0  0  0
 26 27  1  0  0  0  0
 26 30  1  0  0  0  0
 27 28  1  0  0  0  0
 28 29  1  0  0  0  0
 29 30  1  0  0  0  0
 30 31  1  0  0  0  0
 30 32  1  0  0  0  0
  1 33  1  0  0  0  0
  3 34  1  0  0  0  0
  3 35  1  0  0  0  0
  8 36  1  0  0  0  0
  9 37  1  0  0  0  0
 13 38  1  0  0  0  0
 15 39  1  0  0  0  0
 16 40  1  0  0  0  0
 21 41  1  0  0  0  0
 21 42  1  0  0  0  0
 21 43  1  0  0  0  0
 23 44  1  0  0  0  0
 24 45  1  0  0  0  0
 25 46  1  0  0  0  0
 29 47  1  0  0  0  0
 29 48  1  0  0  0  0
 31 49  1  0  0  0  0
 31 50  1  0  0  0  0
 31 51  1  0  0  0  0
 32 52  1  0  0  0  0
 32 53  1  0  0  0  0
 32 54  1  0  0  0  0
M  END
> <ID>
60

> <IC50[uM]>
1.073

$$$$
60
  -OEChem-05192314323D
 Structure written by MMmdl.
 54 58  0     1  0  0  0  0  0999 V2000
   92.6660   47.2613  266.3406 C   0  0  0  0  0  0  0  0  0  0  0  0
   91.6770   48.2220  266.5146 C   0  0  0  0  0  0  0  0  0  0  0  0
   91.9879   49.4167  267.1425 C   0  0  0  0  0  0  0  0  0  0  0  0
   93.2709   49.6946  267.6279 C   0  0  0  0  0  0  0  0  0  0  0  0
   93.9719   47.4800  266.8354 C   0  0  0  0  0  0  0  0  0  0  0  0
   94.2913   48.7152  267.4805 C   0  0  0  0  0  0  0  0  0  0  0  0
   95.5450   48.9221  267.9883 N   0  0  0  0  0  0  0  0  0  0  0  0
   96.4599   47.9343  267.8372 C   0  0  0  0  0  0  0  0  0  0  0  0
   96.1350   46.7275  267.2279 C   0  0  0  0  0  0  0  0  0  0  0  0
   94.9013   46.4918  266.7230 N   0  0  0  0  0  0  0  0  0  0  0  0
   90.3487   47.9881  266.1437 N   0  0  0  0  0  0  0  0  0  0  0  0
   89.8102   47.2444  265.0862 C   0  0  0  0  0  0  0  0  0  0  0  0
   90.5239   47.0994  263.8922 C   0  0  0  0  0  0  0  0  0  0  0  0
   90.0430   46.4477  262.8068 N   0  0  0  0  0  0  0  0  0  0  0  0
   88.8025   45.9112  262.8993 C   0  0  0  0  0  0  0  0  0  0  0  0
   88.0213   45.9914  264.0502 C   0  0  0  0  0  0  0  0  0  0  0  0
   88.5247   46.6790  265.1618 C   0  0  3  0  0  0  0  0  0  0  0  0
   87.5572   46.7485  266.6776 S   0  0  0  0  0  0  0  0  0  0  0  0
   87.9494   45.5860  267.4786 O   0  0  0  0  0  0  0  0  0  0  0  0
   87.7078   48.0995  267.2278 O   0  0  0  0  0  0  0  0  0  0  0  0
   85.7583   46.5374  266.1602 C   0  0  0  0  0  0  0  0  0  0  0  0
   93.4545   50.9305  268.4147 C   0  0  0  0  0  0  0  0  0  0  0  0
   94.4202   51.9117  268.1364 C   0  0  0  0  0  0  0  0  0  0  0  0
   94.4695   53.0834  268.9040 C   0  0  0  0  0  0  0  0  0  0  0  0
   92.5838   51.1138  269.4835 C   0  0  0  0  0  0  0  0  0  0  0  0
   92.6365   52.2501  270.2532 C   0  0  0  0  0  0  0  0  0  0  0  0
   93.5640   53.2265  269.9558 C   0  0  0  0  0  0  0  0  0  0  0  0
   93.4148   54.3422  270.7273 O   0  0  0  0  0  0  0  0  0  0  0  0
   92.4599   54.0057  271.7365 C   0  0  0  0  0  0  0  0  0  0  0  0
   91.7186   52.6858  271.3365 C   0  0  0  0  0  0  0  0  0  0  0  0
   91.6600   51.7353  272.5275 C   0  0  0  0  0  0  0  0  0  0  0  0
   90.2882   52.7274  270.7487 C   0  0  0  0  0  0  0  0  0  0  0  0
   92.4353   46.3414  265.8239 H   0  0  0  0  0  0  0  0  0  0  0  0
   91.2133   50.1598  267.2617 H   0  0  0  0  0  0  0  0  0  0  0  0
   97.4659   48.0880  268.1987 H   0  0  0  0  0  0  0  0  0  0  0  0
   96.8879   45.9566  267.1554 H   0  0  0  0  0  0  0  0  0  0  0  0
   91.5123   47.5306  263.8325 H   0  0  0  0  0  0  0  0  0  0  0  0
   88.3997   45.3965  262.0395 H   0  0  0  0  0  0  0  0  0  0  0  0
   87.0447   45.5315  264.0846 H   0  0  0  0  0  0  0  0  0  0  0  0
   88.0704   47.6175  264.8112 H   0  0  0  0  0  0  0  0  0  0  0  0
   85.1136   46.5715  267.0508 H   0  0  0  0  0  0  0  0  0  0  0  0
   85.4770   47.3488  265.4728 H   0  0  0  0  0  0  0  0  0  0  0  0
   85.6337   45.5686  265.6544 H   0  0  0  0  0  0  0  0  0  0  0  0
   95.1245   51.7634  267.3312 H   0  0  0  0  0  0  0  0  0  0  0  0
   95.1911   53.8570  268.6865 H   0  0  0  0  0  0  0  0  0  0  0  0
   91.8546   50.3505  269.7119 H   0  0  0  0  0  0  0  0  0  0  0  0
   92.9773   53.8590  272.6961 H   0  0  0  0  0  0  0  0  0  0  0  0
   91.7284   54.8213  271.8353 H   0  0  0  0  0  0  0  0  0  0  0  0
   90.9610   52.1310  273.2791 H   0  0  0  0  0  0  0  0  0  0  0  0
   91.3150   50.7466  272.1908 H   0  0  0  0  0  0  0  0  0  0  0  0
   92.6620   51.6423  272.9718 H   0  0  0  0  0  0  0  0  0  0  0  0
   89.5804   53.0475  271.5275 H   0  0  0  0  0  0  0  0  0  0  0  0
   90.2570   53.4387  269.9102 H   0  0  0  0  0  0  0  0  0  0  0  0
   90.0100   51.7254  270.3900 H   0  0  0  0  0  0  0  0  0  0  0  0
  1  2  2  0  0  0  0
  1  5  1  0  0  0  0
  2  3  1  0  0  0  0
  2 11  1  0  0  0  0
  3  4  2  0  0  0  0
  4  6  1  0  0  0  0
  4 22  1  0  0  0  0
  5  6  2  0  0  0  0
  5 10  1  0  0  0  0
  6  7  1  0  0  0  0
  7  8  2  0  0  0  0
  8  9  1  0  0  0  0
  9 10  2  0  0  0  0
 11 12  2  0  0  0  0
 12 13  1  0  0  0  0
 12 17  1  0  0  0  0
 13 14  2  0  0  0  0
 14 15  1  0  0  0  0
 15 16  2  0  0  0  0
 16 17  1  0  0  0  0
 17 18  1  0  0  0  0
 18 19  2  0  0  0  0
 18 20  2  0  0  0  0
 18 21  1  0  0  0  0
 22 23  2  0  0  0  0
 22 25  1  0  0  0  0
 23 24  1  0  0  0  0
 24 27  2  0  0  0  0
 25 26  2  0  0  0  0
 26 27  1  0  0  0  0
 26 30  1  0  0  0  0
 27 28  1  0  0  0  0
 28 29  1  0  0  0  0
 29 30  1  0  0  0  0
 30 31  1  0  0  0  0
 30 32  1  0  0  0  0
  1 33  1  0  0  0  0
  3 34  1  0  0  0  0
  8 35  1  0  0  0  0
  9 36  1  0  0  0  0
 13 37  1  0  0  0  0
 15 38  1  0  0  0  0
 16 39  1  0  0  0  0
 17 40  1  0  0  0  0
 21 41  1  0  0  0  0
 21 42  1  0  0  0  0
 21 43  1  0  0  0  0
 23 44  1  0  0  0  0
 24 45  1  0  0  0  0
 25 46  1  0  0  0  0
 29 47  1  0  0  0  0
 29 48  1  0  0  0  0
 31 49  1  0  0  0  0
 31 50  1  0  0  0  0
 31 51  1  0  0  0  0
 32 52  1  0  0  0  0
 32 53  1  0  0  0  0
 32 54  1  0  0  0  0
M  END
> <ID>
60

> <IC50[uM]>
1.073

$$$$
60
  -OEChem-05192314323D
 Structure written by MMmdl.
 54 58  0     0  0  0  0  0  0999 V2000
   92.6660   47.2613  266.3406 C   0  0  0  0  0  0  0  0  0  0  0  0
   91.6770   48.2220  266.5146 C   0  0  0  0  0  0  0  0  0  0  0  0
   91.9879   49.4167  267.1425 C   0  0  0  0  0  0  0  0  0  0  0  0
   93.2709   49.6946  267.6279 C   0  0  0  0  0  0  0  0  0  0  0  0
   93.9719   47.4800  266.8354 C   0  0  0  0  0  0  0  0  0  0  0  0
   94.2913   48.7152  267.4805 C   0  0  0  0  0  0  0  0  0  0  0  0
   95.5450   48.9221  267.9883 N   0  0  0  0  0  0  0  0  0  0  0  0
   96.4599   47.9343  267.8372 C   0  0  0  0  0  0  0  0  0  0  0  0
   96.1350   46.7275  267.2279 C   0  0  0  0  0  0  0  0  0  0  0  0
   94.9013   46.4918  266.7230 N   0  0  0  0  0  0  0  0  0  0  0  0
   90.3487   47.9881  266.1437 N   0  0  0  0  0  0  0  0  0  0  0  0
   89.8102   47.2444  265.0862 C   0  0  0  0  0  0  0  0  0  0  0  0
   90.5239   47.0994  263.8922 C   0  0  0  0  0  0  0  0  0  0  0  0
   90.0430   46.4477  262.8068 N   0  0  0  0  0  0  0  0  0  0  0  0
   88.8025   45.9112  262.8993 C   0  0  0  0  0  0  0  0  0  0  0  0
   88.0213   45.9914  264.0502 C   0  0  0  0  0  0  0  0  0  0  0  0
   88.5247   46.6790  265.1618 C   0  0  0  0  0  0  0  0  0  0  0  0
   87.5572   46.7485  266.6776 S   0  0  0  0  0  0  0  0  0  0  0  0
   87.9494   45.5860  267.4786 O   0  0  0  0  0  0  0  0  0  0  0  0
   87.7078   48.0995  267.2278 O   0  0  0  0  0  0  0  0  0  0  0  0
   85.7583   46.5374  266.1602 C   0  0  0  0  0  0  0  0  0  0  0  0
   93.4545   50.9305  268.4147 C   0  0  0  0  0  0  0  0  0  0  0  0
   94.4202   51.9117  268.1364 C   0  0  0  0  0  0  0  0  0  0  0  0
   94.4695   53.0834  268.9040 C   0  0  0  0  0  0  0  0  0  0  0  0
   92.5838   51.1138  269.4835 C   0  0  0  0  0  0  0  0  0  0  0  0
   92.6365   52.2501  270.2532 C   0  0  0  0  0  0  0  0  0  0  0  0
   93.5640   53.2265  269.9558 C   0  0  0  0  0  0  0  0  0  0  0  0
   93.4148   54.3422  270.7273 O   0  0  0  0  0  0  0  0  0  0  0  0
   92.4599   54.0057  271.7365 C   0  0  0  0  0  0  0  0  0  0  0  0
   91.7186   52.6858  271.3365 C   0  0  0  0  0  0  0  0  0  0  0  0
   91.6600   51.7353  272.5275 C   0  0  0  0  0  0  0  0  0  0  0  0
   90.2882   52.7274  270.7487 C   0  0  0  0  0  0  0  0  0  0  0  0
   92.4353   46.3414  265.8239 H   0  0  0  0  0  0  0  0  0  0  0  0
   91.2133   50.1598  267.2617 H   0  0  0  0  0  0  0  0  0  0  0  0
   97.4659   48.0880  268.1987 H   0  0  0  0  0  0  0  0  0  0  0  0
   96.8879   45.9566  267.1554 H   0  0  0  0  0  0  0  0  0  0  0  0
   91.5123   47.5306  263.8325 H   0  0  0  0  0  0  0  0  0  0  0  0
   88.2104   46.3790  262.0989 H   0  0  0  0  0  0  0  0  0  0  0  0
   88.9208   44.8381  262.6885 H   0  0  0  0  0  0  0  0  0  0  0  0
   87.0447   45.5315  264.0846 H   0  0  0  0  0  0  0  0  0  0  0  0
   85.1136   46.5715  267.0508 H   0  0  0  0  0  0  0  0  0  0  0  0
   85.4770   47.3488  265.4728 H   0  0  0  0  0  0  0  0  0  0  0  0
   85.6337   45.5686  265.6544 H   0  0  0  0  0  0  0  0  0  0  0  0
   95.1245   51.7634  267.3312 H   0  0  0  0  0  0  0  0  0  0  0  0
   95.1911   53.8570  268.6865 H   0  0  0  0  0  0  0  0  0  0  0  0
   91.8546   50.3505  269.7119 H   0  0  0  0  0  0  0  0  0  0  0  0
   92.9773   53.8590  272.6961 H   0  0  0  0  0  0  0  0  0  0  0  0
   91.7284   54.8213  271.8353 H   0  0  0  0  0  0  0  0  0  0  0  0
   90.9610   52.1310  273.2791 H   0  0  0  0  0  0  0  0  0  0  0  0
   91.3150   50.7466  272.1908 H   0  0  0  0  0  0  0  0  0  0  0  0
   92.6620   51.6423  272.9718 H   0  0  0  0  0  0  0  0  0  0  0  0
   89.5804   53.0475  271.5275 H   0  0  0  0  0  0  0  0  0  0  0  0
   90.2570   53.4387  269.9102 H   0  0  0  0  0  0  0  0  0  0  0  0
   90.0100   51.7254  270.3900 H   0  0  0  0  0  0  0  0  0  0  0  0
  1  2  2  0  0  0  0
  1  5  1  0  0  0  0
  2  3  1  0  0  0  0
  2 11  1  0  0  0  0
  3  4  2  0  0  0  0
  4  6  1  0  0  0  0
  4 22  1  0  0  0  0
  5  6  2  0  0  0  0
  5 10  1  0  0  0  0
  6  7  1  0  0  0  0
  7  8  2  0  0  0  0
  8  9  1  0  0  0  0
  9 10  2  0  0  0  0
 11 12  2  0  0  0  0
 12 13  1  0  0  0  0
 12 17  1  0  0  0  0
 13 14  2  0  0  0  0
 14 15  1  0  0  0  0
 15 16  1  0  0  0  0
 16 17  2  0  0  0  0
 17 18  1  0  0  0  0
 18 19  2  0  0  0  0
 18 20  2  0  0  0  0
 18 21  1  0  0  0  0
 22 23  2  0  0  0  0
 22 25  1  0  0  0  0
 23 24  1  0  0  0  0
 24 27  2  0  0  0  0
 25 26  2  0  0  0  0
 26 27  1  0  0  0  0
 26 30  1  0  0  0  0
 27 28  1  0  0  0  0
 28 29  1  0  0  0  0
 29 30  1  0  0  0  0
 30 31  1  0  0  0  0
 30 32  1  0  0  0  0
  1 33  1  0  0  0  0
  3 34  1  0  0  0  0
  8 35  1  0  0  0  0
  9 36  1  0  0  0  0
 13 37  1  0  0  0  0
 15 38  1  0  0  0  0
 15 39  1  0  0  0  0
 16 40  1  0  0  0  0
 21 41  1  0  0  0  0
 21 42  1  0  0  0  0
 21 43  1  0  0  0  0
 23 44  1  0  0  0  0
 24 45  1  0  0  0  0
 25 46  1  0  0  0  0
 29 47  1  0  0  0  0
 29 48  1  0  0  0  0
 31 49  1  0  0  0  0
 31 50  1  0  0  0  0
 31 51  1  0  0  0  0
 32 52  1  0  0  0  0
 32 53  1  0  0  0  0
 32 54  1  0  0  0  0
M  END
> <ID>
60

> <IC50[uM]>
1.073

$$$$
60
  -OEChem-05192314323D
 Structure written by MMmdl.
 54 58  0     0  0  0  0  0  0999 V2000
   92.6660   47.2613  266.3406 C   0  0  0  0  0  0  0  0  0  0  0  0
   91.6770   48.2220  266.5146 C   0  0  0  0  0  0  0  0  0  0  0  0
   91.9879   49.4167  267.1425 C   0  0  0  0  0  0  0  0  0  0  0  0
   93.2709   49.6946  267.6279 C   0  0  0  0  0  0  0  0  0  0  0  0
   93.9719   47.4800  266.8354 C   0  0  0  0  0  0  0  0  0  0  0  0
   94.2913   48.7152  267.4805 C   0  0  0  0  0  0  0  0  0  0  0  0
   95.5450   48.9221  267.9883 N   0  0  0  0  0  0  0  0  0  0  0  0
   96.4599   47.9343  267.8372 C   0  0  0  0  0  0  0  0  0  0  0  0
   96.1350   46.7275  267.2279 C   0  0  0  0  0  0  0  0  0  0  0  0
   94.9013   46.4918  266.7230 N   0  0  0  0  0  0  0  0  0  0  0  0
   90.3487   47.9881  266.1437 N   0  0  0  0  0  0  0  0  0  0  0  0
   89.8102   47.2444  265.0862 C   0  0  0  0  0  0  0  0  0  0  0  0
   90.5239   47.0994  263.8922 C   0  0  0  0  0  0  0  0  0  0  0  0
   90.0430   46.4477  262.8068 N   0  0  0  0  0  0  0  0  0  0  0  0
   88.8025   45.9112  262.8993 C   0  0  0  0  0  0  0  0  0  0  0  0
   88.0213   45.9914  264.0502 C   0  0  0  0  0  0  0  0  0  0  0  0
   88.5247   46.6790  265.1618 C   0  0  0  0  0  0  0  0  0  0  0  0
   87.5572   46.7485  266.6776 S   0  0  0  0  0  0  0  0  0  0  0  0
   87.9494   45.5860  267.4786 O   0  0  0  0  0  0  0  0  0  0  0  0
   87.7078   48.0995  267.2278 O   0  0  0  0  0  0  0  0  0  0  0  0
   85.7583   46.5374  266.1602 C   0  0  0  0  0  0  0  0  0  0  0  0
   93.4545   50.9305  268.4147 C   0  0  0  0  0  0  0  0  0  0  0  0
   94.4202   51.9117  268.1364 C   0  0  0  0  0  0  0  0  0  0  0  0
   94.4695   53.0834  268.9040 C   0  0  0  0  0  0  0  0  0  0  0  0
   92.5838   51.1138  269.4835 C   0  0  0  0  0  0  0  0  0  0  0  0
   92.6365   52.2501  270.2532 C   0  0  0  0  0  0  0  0  0  0  0  0
   93.5640   53.2265  269.9558 C   0  0  0  0  0  0  0  0  0  0  0  0
   93.4148   54.3422  270.7273 O   0  0  0  0  0  0  0  0  0  0  0  0
   92.4599   54.0057  271.7365 C   0  0  0  0  0  0  0  0  0  0  0  0
   91.7186   52.6858  271.3365 C   0  0  0  0  0  0  0  0  0  0  0  0
   91.6600   51.7353  272.5275 C   0  0  0  0  0  0  0  0  0  0  0  0
   90.2882   52.7274  270.7487 C   0  0  0  0  0  0  0  0  0  0  0  0
   92.4353   46.3414  265.8239 H   0  0  0  0  0  0  0  0  0  0  0  0
   91.2133   50.1598  267.2617 H   0  0  0  0  0  0  0  0  0  0  0  0
   97.4659   48.0880  268.1987 H   0  0  0  0  0  0  0  0  0  0  0  0
   96.8879   45.9566  267.1554 H   0  0  0  0  0  0  0  0  0  0  0  0
   90.7519   48.1206  263.5527 H   0  0  0  0  0  0  0  0  0  0  0  0
   91.4584   46.5853  264.1615 H   0  0  0  0  0  0  0  0  0  0  0  0
   88.3997   45.3965  262.0395 H   0  0  0  0  0  0  0  0  0  0  0  0
   87.0447   45.5315  264.0846 H   0  0  0  0  0  0  0  0  0  0  0  0
   85.1136   46.5715  267.0508 H   0  0  0  0  0  0  0  0  0  0  0  0
   85.4770   47.3488  265.4728 H   0  0  0  0  0  0  0  0  0  0  0  0
   85.6337   45.5686  265.6544 H   0  0  0  0  0  0  0  0  0  0  0  0
   95.1245   51.7634  267.3312 H   0  0  0  0  0  0  0  0  0  0  0  0
   95.1911   53.8570  268.6865 H   0  0  0  0  0  0  0  0  0  0  0  0
   91.8546   50.3505  269.7119 H   0  0  0  0  0  0  0  0  0  0  0  0
   92.9773   53.8590  272.6961 H   0  0  0  0  0  0  0  0  0  0  0  0
   91.7284   54.8213  271.8353 H   0  0  0  0  0  0  0  0  0  0  0  0
   90.9610   52.1310  273.2791 H   0  0  0  0  0  0  0  0  0  0  0  0
   91.3150   50.7466  272.1908 H   0  0  0  0  0  0  0  0  0  0  0  0
   92.6620   51.6423  272.9718 H   0  0  0  0  0  0  0  0  0  0  0  0
   89.5804   53.0475  271.5275 H   0  0  0  0  0  0  0  0  0  0  0  0
   90.2570   53.4387  269.9102 H   0  0  0  0  0  0  0  0  0  0  0  0
   90.0100   51.7254  270.3900 H   0  0  0  0  0  0  0  0  0  0  0  0
  1  2  2  0  0  0  0
  1  5  1  0  0  0  0
  2  3  1  0  0  0  0
  2 11  1  0  0  0  0
  3  4  2  0  0  0  0
  4  6  1  0  0  0  0
  4 22  1  0  0  0  0
  5  6  2  0  0  0  0
  5 10  1  0  0  0  0
  6  7  1  0  0  0  0
  7  8  2  0  0  0  0
  8  9  1  0  0  0  0
  9 10  2  0  0  0  0
 11 12  2  0  0  0  0
 12 13  1  0  0  0  0
 12 17  1  0  0  0  0
 13 14  1  0  0  0  0
 14 15  2  0  0  0  0
 15 16  1  0  0  0  0
 16 17  2  0  0  0  0
 17 18  1  0  0  0  0
 18 19  2  0  0  0  0
 18 20  2  0  0  0  0
 18 21  1  0  0  0  0
 22 23  2  0  0  0  0
 22 25  1  0  0  0  0
 23 24  1  0  0  0  0
 24 27  2  0  0  0  0
 25 26  2  0  0  0  0
 26 27  1  0  0  0  0
 26 30  1  0  0  0  0
 27 28  1  0  0  0  0
 28 29  1  0  0  0  0
 29 30  1  0  0  0  0
 30 31  1  0  0  0  0
 30 32  1  0  0  0  0
  1 33  1  0  0  0  0
  3 34  1  0  0  0  0
  8 35  1  0  0  0  0
  9 36  1  0  0  0  0
 13 37  1  0  0  0  0
 13 38  1  0  0  0  0
 15 39  1  0  0  0  0
 16 40  1  0  0  0  0
 21 41  1  0  0  0  0
 21 42  1  0  0  0  0
 21 43  1  0  0  0  0
 23 44  1  0  0  0  0
 24 45  1  0  0  0  0
 25 46  1  0  0  0  0
 29 47  1  0  0  0  0
 29 48  1  0  0  0  0
 31 49  1  0  0  0  0
 31 50  1  0  0  0  0
 31 51  1  0  0  0  0
 32 52  1  0  0  0  0
 32 53  1  0  0  0  0
 32 54  1  0  0  0  0
M  END
> <ID>
60

> <IC50[uM]>
1.073

$$$$
60
  -OEChem-05192314323D
 Structure written by MMmdl.
 54 58  0     1  0  0  0  0  0999 V2000
   92.6660   47.2613  266.3406 C   0  0  0  0  0  0  0  0  0  0  0  0
   91.6770   48.2220  266.5146 C   0  0  0  0  0  0  0  0  0  0  0  0
   91.9879   49.4167  267.1425 C   0  0  0  0  0  0  0  0  0  0  0  0
   93.2709   49.6946  267.6279 C   0  0  0  0  0  0  0  0  0  0  0  0
   93.9719   47.4800  266.8354 C   0  0  0  0  0  0  0  0  0  0  0  0
   94.2913   48.7152  267.4805 C   0  0  3  0  0  0  0  0  0  0  0  0
   95.5450   48.9221  267.9883 N   0  0  0  0  0  0  0  0  0  0  0  0
   96.4599   47.9343  267.8372 C   0  0  0  0  0  0  0  0  0  0  0  0
   96.1350   46.7275  267.2279 C   0  0  0  0  0  0  0  0  0  0  0  0
   94.9013   46.4918  266.7230 N   0  0  0  0  0  0  0  0  0  0  0  0
   90.3487   47.9881  266.1437 N   0  0  0  0  0  0  0  0  0  0  0  0
   89.8102   47.2444  265.0862 C   0  0  0  0  0  0  0  0  0  0  0  0
   90.5239   47.0994  263.8922 C   0  0  0  0  0  0  0  0  0  0  0  0
   90.0430   46.4477  262.8068 N   0  0  0  0  0  0  0  0  0  0  0  0
   88.8025   45.9112  262.8993 C   0  0  0  0  0  0  0  0  0  0  0  0
   88.0213   45.9914  264.0502 C   0  0  0  0  0  0  0  0  0  0  0  0
   88.5247   46.6790  265.1618 C   0  0  0  0  0  0  0  0  0  0  0  0
   87.5572   46.7485  266.6776 S   0  0  0  0  0  0  0  0  0  0  0  0
   87.9494   45.5860  267.4786 O   0  0  0  0  0  0  0  0  0  0  0  0
   87.7078   48.0995  267.2278 O   0  0  0  0  0  0  0  0  0  0  0  0
   85.7583   46.5374  266.1602 C   0  0  0  0  0  0  0  0  0  0  0  0
   93.4545   50.9305  268.4147 C   0  0  0  0  0  0  0  0  0  0  0  0
   94.4202   51.9117  268.1364 C   0  0  0  0  0  0  0  0  0  0  0  0
   94.4695   53.0834  268.9040 C   0  0  0  0  0  0  0  0  0  0  0  0
   92.5838   51.1138  269.4835 C   0  0  0  0  0  0  0  0  0  0  0  0
   92.6365   52.2501  270.2532 C   0  0  0  0  0  0  0  0  0  0  0  0
   93.5640   53.2265  269.9558 C   0  0  0  0  0  0  0  0  0  0  0  0
   93.4148   54.3422  270.7273 O   0  0  0  0  0  0  0  0  0  0  0  0
   92.4599   54.0057  271.7365 C   0  0  0  0  0  0  0  0  0  0  0  0
   91.7186   52.6858  271.3365 C   0  0  0  0  0  0  0  0  0  0  0  0
   91.6600   51.7353  272.5275 C   0  0  0  0  0  0  0  0  0  0  0  0
   90.2882   52.7274  270.7487 C   0  0  0  0  0  0  0  0  0  0  0  0
   92.4353   46.3414  265.8239 H   0  0  0  0  0  0  0  0  0  0  0  0
   91.2133   50.1598  267.2617 H   0  0  0  0  0  0  0  0  0  0  0  0
   94.5932   49.1550  266.5185 H   0  0  0  0  0  0  0  0  0  0  0  0
   97.4659   48.0880  268.1987 H   0  0  0  0  0  0  0  0  0  0  0  0
   96.8879   45.9566  267.1554 H   0  0  0  0  0  0  0  0  0  0  0  0
   91.5123   47.5306  263.8325 H   0  0  0  0  0  0  0  0  0  0  0  0
   88.3997   45.3965  262.0395 H   0  0  0  0  0  0  0  0  0  0  0  0
   87.0447   45.5315  264.0846 H   0  0  0  0  0  0  0  0  0  0  0  0
   85.1136   46.5715  267.0508 H   0  0  0  0  0  0  0  0  0  0  0  0
   85.4770   47.3488  265.4728 H   0  0  0  0  0  0  0  0  0  0  0  0
   85.6337   45.5686  265.6544 H   0  0  0  0  0  0  0  0  0  0  0  0
   95.1245   51.7634  267.3312 H   0  0  0  0  0  0  0  0  0  0  0  0
   95.1911   53.8570  268.6865 H   0  0  0  0  0  0  0  0  0  0  0  0
   91.8546   50.3505  269.7119 H   0  0  0  0  0  0  0  0  0  0  0  0
   92.9773   53.8590  272.6961 H   0  0  0  0  0  0  0  0  0  0  0  0
   91.7284   54.8213  271.8353 H   0  0  0  0  0  0  0  0  0  0  0  0
   90.9610   52.1310  273.2791 H   0  0  0  0  0  0  0  0  0  0  0  0
   91.3150   50.7466  272.1908 H   0  0  0  0  0  0  0  0  0  0  0  0
   92.6620   51.6423  272.9718 H   0  0  0  0  0  0  0  0  0  0  0  0
   89.5804   53.0475  271.5275 H   0  0  0  0  0  0  0  0  0  0  0  0
   90.2570   53.4387  269.9102 H   0  0  0  0  0  0  0  0  0  0  0  0
   90.0100   51.7254  270.3900 H   0  0  0  0  0  0  0  0  0  0  0  0
  1  2  1  0  0  0  0
  1  5  2  0  0  0  0
  2  3  1  0  0  0  0
  2 11  2  3  0  0  0
  3  4  2  0  0  0  0
  4  6  1  0  0  0  0
  4 22  1  0  0  0  0
  5  6  1  0  0  0  0
  5 10  1  0  0  0  0
  6  7  1  0  0  0  0
  7  8  2  0  0  0  0
  8  9  1  0  0  0  0
  9 10  2  0  0  0  0
 11 12  1  0  0  0  0
 12 13  2  0  0  0  0
 12 17  1  0  0  0  0
 13 14  1  0  0  0  0
 14 15  2  0  0  0  0
 15 16  1  0  0  0  0
 16 17  2  0  0  0  0
 17 18  1  0  0  0  0
 18 19  2  0  0  0  0
 18 20  2  0  0  0  0
 18 21  1  0  0  0  0
 22 23  2  0  0  0  0
 22 25  1  0  0  0  0
 23 24  1  0  0  0  0
 24 27  2  0  0  0  0
 25 26  2  0  0  0  0
 26 27  1  0  0  0  0
 26 30  1  0  0  0  0
 27 28  1  0  0  0  0
 28 29  1  0  0  0  0
 29 30  1  0  0  0  0
 30 31  1  0  0  0  0
 30 32  1  0  0  0  0
  1 33  1  0  0  0  0
  3 34  1  0  0  0  0
  6 35  1  0  0  0  0
  8 36  1  0  0  0  0
  9 37  1  0  0  0  0
 13 38  1  0  0  0  0
 15 39  1  0  0  0  0
 16 40  1  0  0  0  0
 21 41  1  0  0  0  0
 21 42  1  0  0  0  0
 21 43  1  0  0  0  0
 23 44  1  0  0  0  0
 24 45  1  0  0  0  0
 25 46  1  0  0  0  0
 29 47  1  0  0  0  0
 29 48  1  0  0  0  0
 31 49  1  0  0  0  0
 31 50  1  0  0  0  0
 31 51  1  0  0  0  0
 32 52  1  0  0  0  0
 32 53  1  0  0  0  0
 32 54  1  0  0  0  0
M  END
> <ID>
60

> <IC50[uM]>
1.073

$$$$
60
  -OEChem-05192314323D
 Structure written by MMmdl.
 54 58  0     0  0  0  0  0  0999 V2000
   92.6660   47.2613  266.3406 C   0  0  0  0  0  0  0  0  0  0  0  0
   91.6770   48.2220  266.5146 C   0  0  0  0  0  0  0  0  0  0  0  0
   91.9879   49.4167  267.1425 C   0  0  0  0  0  0  0  0  0  0  0  0
   93.2709   49.6946  267.6279 C   0  0  0  0  0  0  0  0  0  0  0  0
   93.9719   47.4800  266.8354 C   0  0  0  0  0  0  0  0  0  0  0  0
   94.2913   48.7152  267.4805 C   0  0  0  0  0  0  0  0  0  0  0  0
   95.5450   48.9221  267.9883 N   0  0  0  0  0  0  0  0  0  0  0  0
   96.4599   47.9343  267.8372 C   0  0  0  0  0  0  0  0  0  0  0  0
   96.1350   46.7275  267.2279 C   0  0  0  0  0  0  0  0  0  0  0  0
   94.9013   46.4918  266.7230 N   0  0  0  0  0  0  0  0  0  0  0  0
   90.3487   47.9881  266.1437 N   0  0  0  0  0  0  0  0  0  0  0  0
   89.8102   47.2444  265.0862 C   0  0  0  0  0  0  0  0  0  0  0  0
   90.5239   47.0994  263.8922 C   0  0  0  0  0  0  0  0  0  0  0  0
   90.0430   46.4477  262.8068 N   0  0  0  0  0  0  0  0  0  0  0  0
   88.8025   45.9112  262.8993 C   0  0  0  0  0  0  0  0  0  0  0  0
   88.0213   45.9914  264.0502 C   0  0  0  0  0  0  0  0  0  0  0  0
   88.5247   46.6790  265.1618 C   0  0  0  0  0  0  0  0  0  0  0  0
   87.5572   46.7485  266.6776 S   0  0  0  0  0  0  0  0  0  0  0  0
   87.9494   45.5860  267.4786 O   0  0  0  0  0  0  0  0  0  0  0  0
   87.7078   48.0995  267.2278 O   0  0  0  0  0  0  0  0  0  0  0  0
   85.7583   46.5374  266.1602 C   0  0  0  0  0  0  0  0  0  0  0  0
   93.4545   50.9305  268.4147 C   0  0  0  0  0  0  0  0  0  0  0  0
   94.4202   51.9117  268.1364 C   0  0  0  0  0  0  0  0  0  0  0  0
   94.4695   53.0834  268.9040 C   0  0  0  0  0  0  0  0  0  0  0  0
   92.5838   51.1138  269.4835 C   0  0  0  0  0  0  0  0  0  0  0  0
   92.6365   52.2501  270.2532 C   0  0  0  0  0  0  0  0  0  0  0  0
   93.5640   53.2265  269.9558 C   0  0  0  0  0  0  0  0  0  0  0  0
   93.4148   54.3422  270.7273 O   0  0  0  0  0  0  0  0  0  0  0  0
   92.4599   54.0057  271.7365 C   0  0  0  0  0  0  0  0  0  0  0  0
   91.7186   52.6858  271.3365 C   0  0  0  0  0  0  0  0  0  0  0  0
   91.6600   51.7353  272.5275 C   0  0  0  0  0  0  0  0  0  0  0  0
   90.2882   52.7274  270.7487 C   0  0  0  0  0  0  0  0  0  0  0  0
   92.4353   46.3414  265.8239 H   0  0  0  0  0  0  0  0  0  0  0  0
   91.2133   50.1598  267.2617 H   0  0  0  0  0  0  0  0  0  0  0  0
   97.2863   48.3642  267.2521 H   0  0  0  0  0  0  0  0  0  0  0  0
   96.8167   47.6852  268.8475 H   0  0  0  0  0  0  0  0  0  0  0  0
   96.8879   45.9566  267.1554 H   0  0  0  0  0  0  0  0  0  0  0  0
   91.5123   47.5306  263.8325 H   0  0  0  0  0  0  0  0  0  0  0  0
   88.3997   45.3965  262.0395 H   0  0  0  0  0  0  0  0  0  0  0  0
   87.0447   45.5315  264.0846 H   0  0  0  0  0  0  0  0  0  0  0  0
   85.1136   46.5715  267.0508 H   0  0  0  0  0  0  0  0  0  0  0  0
   85.4770   47.3488  265.4728 H   0  0  0  0  0  0  0  0  0  0  0  0
   85.6337   45.5686  265.6544 H   0  0  0  0  0  0  0  0  0  0  0  0
   95.1245   51.7634  267.3312 H   0  0  0  0  0  0  0  0  0  0  0  0
   95.1911   53.8570  268.6865 H   0  0  0  0  0  0  0  0  0  0  0  0
   91.8546   50.3505  269.7119 H   0  0  0  0  0  0  0  0  0  0  0  0
   92.9773   53.8590  272.6961 H   0  0  0  0  0  0  0  0  0  0  0  0
   91.7284   54.8213  271.8353 H   0  0  0  0  0  0  0  0  0  0  0  0
   90.9610   52.1310  273.2791 H   0  0  0  0  0  0  0  0  0  0  0  0
   91.3150   50.7466  272.1908 H   0  0  0  0  0  0  0  0  0  0  0  0
   92.6620   51.6423  272.9718 H   0  0  0  0  0  0  0  0  0  0  0  0
   89.5804   53.0475  271.5275 H   0  0  0  0  0  0  0  0  0  0  0  0
   90.2570   53.4387  269.9102 H   0  0  0  0  0  0  0  0  0  0  0  0
   90.0100   51.7254  270.3900 H   0  0  0  0  0  0  0  0  0  0  0  0
  1  2  1  0  0  0  0
  1  5  2  0  0  0  0
  2  3  1  0  0  0  0
  2 11  2  3  0  0  0
  3  4  2  0  0  0  0
  4  6  1  0  0  0  0
  4 22  1  0  0  0  0
  5  6  1  0  0  0  0
  5 10  1  0  0  0  0
  6  7  2  0  0  0  0
  7  8  1  0  0  0  0
  8  9  1  0  0  0  0
  9 10  2  0  0  0  0
 11 12  1  0  0  0  0
 12 13  2  0  0  0  0
 12 17  1  0  0  0  0
 13 14  1  0  0  0  0
 14 15  2  0  0  0  0
 15 16  1  0  0  0  0
 16 17  2  0  0  0  0
 17 18  1  0  0  0  0
 18 19  2  0  0  0  0
 18 20  2  0  0  0  0
 18 21  1  0  0  0  0
 22 23  2  0  0  0  0
 22 25  1  0  0  0  0
 23 24  1  0  0  0  0
 24 27  2  0  0  0  0
 25 26  2  0  0  0  0
 26 27  1  0  0  0  0
 26 30  1  0  0  0  0
 27 28  1  0  0  0  0
 28 29  1  0  0  0  0
 29 30  1  0  0  0  0
 30 31  1  0  0  0  0
 30 32  1  0  0  0  0
  1 33  1  0  0  0  0
  3 34  1  0  0  0  0
  8 35  1  0  0  0  0
  8 36  1  0  0  0  0
  9 37  1  0  0  0  0
 13 38  1  0  0  0  0
 15 39  1  0  0  0  0
 16 40  1  0  0  0  0
 21 41  1  0  0  0  0
 21 42  1  0  0  0  0
 21 43  1  0  0  0  0
 23 44  1  0  0  0  0
 24 45  1  0  0  0  0
 25 46  1  0  0  0  0
 29 47  1  0  0  0  0
 29 48  1  0  0  0  0
 31 49  1  0  0  0  0
 31 50  1  0  0  0  0
 31 51  1  0  0  0  0
 32 52  1  0  0  0  0
 32 53  1  0  0  0  0
 32 54  1  0  0  0  0
M  END
> <ID>
60

> <IC50[uM]>
1.073

$$$$
