53
  -OEChem-05192314313D
 Structure written by MMmdl.
 56 60  0     0  0  0  0  0  0999 V2000
   93.3094   49.8018  267.6715 C   0  0  0  0  0  0  0  0  0  0  0  0
   92.5663   47.3465  266.4764 C   0  0  0  0  0  0  0  0  0  0  0  0
   91.6141   48.3425  266.6765 C   0  0  0  0  0  0  0  0  0  0  0  0
   91.9847   49.5423  267.2840 C   0  0  0  0  0  0  0  0  0  0  0  0
   93.8976   47.5374  266.9026 C   0  0  0  0  0  0  0  0  0  0  0  0
   94.2817   48.7776  267.4988 C   0  0  0  0  0  0  0  0  0  0  0  0
   95.5685   48.9601  267.9272 N   0  0  0  0  0  0  0  0  0  0  0  0
   96.4515   47.9520  267.7392 C   0  0  0  0  0  0  0  0  0  0  0  0
   96.0722   46.7442  267.1750 C   0  0  0  0  0  0  0  0  0  0  0  0
   94.7966   46.5286  266.7520 N   0  0  0  0  0  0  0  0  0  0  0  0
   93.6558   51.0878  268.3201 C   0  0  0  0  0  0  0  0  0  0  0  0
   94.5958   51.9639  267.7545 C   0  0  0  0  0  0  0  0  0  0  0  0
   94.8801   53.1908  268.3506 C   0  0  0  0  0  0  0  0  0  0  0  0
   93.0752   51.3916  269.5378 C   0  0  0  0  0  0  0  0  0  0  0  0
   90.2756   48.1331  266.3189 N   0  0  0  0  0  0  0  0  0  0  0  0
   89.7176   47.3508  265.2916 C   0  0  0  0  0  0  0  0  0  0  0  0
   90.4208   47.1280  264.0996 C   0  0  0  0  0  0  0  0  0  0  0  0
   89.9177   46.4358  263.0468 N   0  0  0  0  0  0  0  0  0  0  0  0
   88.6627   45.9387  263.1665 C   0  0  0  0  0  0  0  0  0  0  0  0
   87.8896   46.0967  264.3155 C   0  0  0  0  0  0  0  0  0  0  0  0
   88.4252   46.8051  265.3987 C   0  0  0  0  0  0  0  0  0  0  0  0
   87.4830   46.8956  266.9271 S   0  0  0  0  0  0  0  0  0  0  0  0
   86.1384   46.3667  266.6674 O   0  0  0  0  0  0  0  0  0  0  0  0
   87.6481   48.2411  267.4789 O   0  0  0  0  0  0  0  0  0  0  0  0
   88.3835   45.6760  268.0451 C   0  0  0  0  0  0  0  0  0  0  0  0
   93.2883   52.6417  270.1079 C   0  0  0  0  0  0  0  0  0  0  0  0
   94.1853   53.5555  269.5070 C   0  0  0  0  0  0  0  0  0  0  0  0
   94.1740   54.7256  270.3504 C   0  0  0  0  0  0  0  0  0  0  0  0
   93.2801   54.4760  271.3702 C   0  0  0  0  0  0  0  0  0  0  0  0
   92.7561   53.2209  271.2520 N   0  0  0  0  0  0  0  0  0  0  0  0
   91.8097   52.5822  272.1667 C   0  0  0  0  0  0  0  0  0  0  0  0
   90.3901   52.3401  271.5852 C   0  0  0  0  0  0  0  0  0  0  0  0
   90.2277   52.2740  270.0518 C   0  0  0  0  0  0  0  0  0  0  0  0
   92.2843   46.4231  265.9925 H   0  0  0  0  0  0  0  0  0  0  0  0
   91.2302   50.2943  267.4617 H   0  0  0  0  0  0  0  0  0  0  0  0
   97.4801   48.0925  268.0370 H   0  0  0  0  0  0  0  0  0  0  0  0
   96.8044   45.9574  267.0687 H   0  0  0  0  0  0  0  0  0  0  0  0
   95.1056   51.6830  266.8448 H   0  0  0  0  0  0  0  0  0  0  0  0
   95.6244   53.8484  267.9264 H   0  0  0  0  0  0  0  0  0  0  0  0
   92.4598   50.6620  270.0431 H   0  0  0  0  0  0  0  0  0  0  0  0
   89.6095   48.6181  266.8855 H   0  0  0  0  0  0  0  0  0  0  0  0
   91.4195   47.5301  264.0145 H   0  0  0  0  0  0  0  0  0  0  0  0
   88.2422   45.3951  262.3333 H   0  0  0  0  0  0  0  0  0  0  0  0
   86.8947   45.6801  264.3697 H   0  0  0  0  0  0  0  0  0  0  0  0
   87.8892   45.6442  269.0273 H   0  0  0  0  0  0  0  0  0  0  0  0
   88.3593   44.6748  267.5900 H   0  0  0  0  0  0  0  0  0  0  0  0
   89.4283   45.9965  268.1708 H   0  0  0  0  0  0  0  0  0  0  0  0
   94.7547   55.6253  270.2100 H   0  0  0  0  0  0  0  0  0  0  0  0
   93.0294   55.1760  272.1535 H   0  0  0  0  0  0  0  0  0  0  0  0
   92.2269   51.6084  272.4629 H   0  0  0  0  0  0  0  0  0  0  0  0
   91.7090   53.2234  273.0548 H   0  0  0  0  0  0  0  0  0  0  0  0
   90.0306   51.3834  271.9921 H   0  0  0  0  0  0  0  0  0  0  0  0
   89.7472   53.1566  271.9456 H   0  0  0  0  0  0  0  0  0  0  0  0
   89.1710   52.0986  269.8017 H   0  0  0  0  0  0  0  0  0  0  0  0
   90.5567   53.2248  269.6070 H   0  0  0  0  0  0  0  0  0  0  0  0
   90.8400   51.4516  269.6535 H   0  0  0  0  0  0  0  0  0  0  0  0
  1  4  2  0  0  0  0
  1  6  1  0  0  0  0
  1 11  1  0  0  0  0
  2  3  2  0  0  0  0
  2  5  1  0  0  0  0
  3  4  1  0  0  0  0
  3 15  1  0  0  0  0
  5  6  2  0  0  0  0
  5 10  1  0  0  0  0
  6  7  1  0  0  0  0
  7  8  2  0  0  0  0
  8  9  1  0  0  0  0
  9 10  2  0  0  0  0
 11 12  2  0  0  0  0
 11 14  1  0  0  0  0
 12 13  1  0  0  0  0
 13 27  2  0  0  0  0
 14 26  2  0  0  0  0
 15 16  1  0  0  0  0
 16 17  2  0  0  0  0
 16 21  1  0  0  0  0
 17 18  1  0  0  0  0
 18 19  2  0  0  0  0
 19 20  1  0  0  0  0
 20 21  2  0  0  0  0
 21 22  1  0  0  0  0
 22 23  2  0  0  0  0
 22 24  2  0  0  0  0
 22 25  1  0  0  0  0
 26 27  1  0  0  0  0
 26 30  1  0  0  0  0
 27 28  1  0  0  0  0
 28 29  2  0  0  0  0
 29 30  1  0  0  0  0
 30 31  1  0  0  0  0
 31 32  1  0  0  0  0
 32 33  1  0  0  0  0
  2 34  1  0  0  0  0
  4 35  1  0  0  0  0
  8 36  1  0  0  0  0
  9 37  1  0  0  0  0
 12 38  1  0  0  0  0
 13 39  1  0  0  0  0
 14 40  1  0  0  0  0
 15 41  1  0  0  0  0
 17 42  1  0  0  0  0
 19 43  1  0  0  0  0
 20 44  1  0  0  0  0
 25 45  1  0  0  0  0
 25 46  1  0  0  0  0
 25 47  1  0  0  0  0
 28 48  1  0  0  0  0
 29 49  1  0  0  0  0
 31 50  1  0  0  0  0
 31 51  1  0  0  0  0
 32 52  1  0  0  0  0
 32 53  1  0  0  0  0
 33 54  1  0  0  0  0
 33 55  1  0  0  0  0
 33 56  1  0  0  0  0
M  END
> <ID>
53

> <IC50[uM]>
7.425

$$$$
53
  -OEChem-05192314313D
 Structure written by MMmdl.
 56 60  0     0  0  0  0  0  0999 V2000
   93.3094   49.8018  267.6715 C   0  0  0  0  0  0  0  0  0  0  0  0
   92.5663   47.3465  266.4764 C   0  0  0  0  0  0  0  0  0  0  0  0
   91.6141   48.3425  266.6765 C   0  0  0  0  0  0  0  0  0  0  0  0
   91.9847   49.5423  267.2840 C   0  0  0  0  0  0  0  0  0  0  0  0
   93.8976   47.5374  266.9026 C   0  0  0  0  0  0  0  0  0  0  0  0
   94.2817   48.7776  267.4988 C   0  0  0  0  0  0  0  0  0  0  0  0
   95.5685   48.9601  267.9272 N   0  0  0  0  0  0  0  0  0  0  0  0
   96.4515   47.9520  267.7392 C   0  0  0  0  0  0  0  0  0  0  0  0
   96.0722   46.7442  267.1750 C   0  0  0  0  0  0  0  0  0  0  0  0
   94.7966   46.5286  266.7520 N   0  0  0  0  0  0  0  0  0  0  0  0
   93.6558   51.0878  268.3201 C   0  0  0  0  0  0  0  0  0  0  0  0
   94.5958   51.9639  267.7545 C   0  0  0  0  0  0  0  0  0  0  0  0
   94.8801   53.1908  268.3506 C   0  0  0  0  0  0  0  0  0  0  0  0
   93.0752   51.3916  269.5378 C   0  0  0  0  0  0  0  0  0  0  0  0
   90.2756   48.1331  266.3189 N   0  0  0  0  0  0  0  0  0  0  0  0
   89.7176   47.3508  265.2916 C   0  0  0  0  0  0  0  0  0  0  0  0
   90.4208   47.1280  264.0996 C   0  0  0  0  0  0  0  0  0  0  0  0
   89.9177   46.4358  263.0468 N   0  0  0  0  0  0  0  0  0  0  0  0
   88.6627   45.9387  263.1665 C   0  0  0  0  0  0  0  0  0  0  0  0
   87.8896   46.0967  264.3155 C   0  0  0  0  0  0  0  0  0  0  0  0
   88.4252   46.8051  265.3987 C   0  0  0  0  0  0  0  0  0  0  0  0
   87.4830   46.8956  266.9271 S   0  0  0  0  0  0  0  0  0  0  0  0
   86.1384   46.3667  266.6674 O   0  0  0  0  0  0  0  0  0  0  0  0
   87.6481   48.2411  267.4789 O   0  0  0  0  0  0  0  0  0  0  0  0
   88.3835   45.6760  268.0451 C   0  0  0  0  0  0  0  0  0  0  0  0
   93.2883   52.6417  270.1079 C   0  0  0  0  0  0  0  0  0  0  0  0
   94.1853   53.5555  269.5070 C   0  0  0  0  0  0  0  0  0  0  0  0
   94.1740   54.7256  270.3504 C   0  0  0  0  0  0  0  0  0  0  0  0
   93.2801   54.4760  271.3702 C   0  0  0  0  0  0  0  0  0  0  0  0
   92.7561   53.2209  271.2520 N   0  0  0  0  0  0  0  0  0  0  0  0
   91.8097   52.5822  272.1667 C   0  0  0  0  0  0  0  0  0  0  0  0
   90.3901   52.3401  271.5852 C   0  0  0  0  0  0  0  0  0  0  0  0
   90.2277   52.2740  270.0518 C   0  0  0  0  0  0  0  0  0  0  0  0
   92.2843   46.4231  265.9925 H   0  0  0  0  0  0  0  0  0  0  0  0
   91.2302   50.2943  267.4617 H   0  0  0  0  0  0  0  0  0  0  0  0
   97.4801   48.0925  268.0370 H   0  0  0  0  0  0  0  0  0  0  0  0
   96.8044   45.9574  267.0687 H   0  0  0  0  0  0  0  0  0  0  0  0
   94.5291   45.6559  266.3435 H   0  0  0  0  0  0  0  0  0  0  0  0
   95.1056   51.6830  266.8448 H   0  0  0  0  0  0  0  0  0  0  0  0
   95.6244   53.8484  267.9264 H   0  0  0  0  0  0  0  0  0  0  0  0
   92.4598   50.6620  270.0431 H   0  0  0  0  0  0  0  0  0  0  0  0
   91.4195   47.5301  264.0145 H   0  0  0  0  0  0  0  0  0  0  0  0
   88.2422   45.3951  262.3333 H   0  0  0  0  0  0  0  0  0  0  0  0
   86.8947   45.6801  264.3697 H   0  0  0  0  0  0  0  0  0  0  0  0
   87.8892   45.6442  269.0273 H   0  0  0  0  0  0  0  0  0  0  0  0
   88.3593   44.6748  267.5900 H   0  0  0  0  0  0  0  0  0  0  0  0
   89.4283   45.9965  268.1708 H   0  0  0  0  0  0  0  0  0  0  0  0
   94.7547   55.6253  270.2100 H   0  0  0  0  0  0  0  0  0  0  0  0
   93.0294   55.1760  272.1535 H   0  0  0  0  0  0  0  0  0  0  0  0
   92.2269   51.6084  272.4629 H   0  0  0  0  0  0  0  0  0  0  0  0
   91.7090   53.2234  273.0548 H   0  0  0  0  0  0  0  0  0  0  0  0
   90.0306   51.3834  271.9921 H   0  0  0  0  0  0  0  0  0  0  0  0
   89.7472   53.1566  271.9456 H   0  0  0  0  0  0  0  0  0  0  0  0
   89.1710   52.0986  269.8017 H   0  0  0  0  0  0  0  0  0  0  0  0
   90.5567   53.2248  269.6070 H   0  0  0  0  0  0  0  0  0  0  0  0
   90.8400   51.4516  269.6535 H   0  0  0  0  0  0  0  0  0  0  0  0
  1  4  2  0  0  0  0
  1  6  1  0  0  0  0
  1 11  1  0  0  0  0
  2  3  1  0  0  0  0
  2  5  2  0  0  0  0
  3  4  1  0  0  0  0
  3 15  2  3  0  0  0
  5  6  1  0  0  0  0
  5 10  1  0  0  0  0
  6  7  2  0  0  0  0
  7  8  1  0  0  0  0
  8  9  2  0  0  0  0
  9 10  1  0  0  0  0
 11 12  2  0  0  0  0
 11 14  1  0  0  0  0
 12 13  1  0  0  0  0
 13 27  2  0  0  0  0
 14 26  2  0  0  0  0
 15 16  1  0  0  0  0
 16 17  2  0  0  0  0
 16 21  1  0  0  0  0
 17 18  1  0  0  0  0
 18 19  2  0  0  0  0
 19 20  1  0  0  0  0
 20 21  2  0  0  0  0
 21 22  1  0  0  0  0
 22 23  2  0  0  0  0
 22 24  2  0  0  0  0
 22 25  1  0  0  0  0
 26 27  1  0  0  0  0
 26 30  1  0  0  0  0
 27 28  1  0  0  0  0
 28 29  2  0  0  0  0
 29 30  1  0  0  0  0
 30 31  1  0  0  0  0
 31 32  1  0  0  0  0
 32 33  1  0  0  0  0
  2 34  1  0  0  0  0
  4 35  1  0  0  0  0
  8 36  1  0  0  0  0
  9 37  1  0  0  0  0
 10 38  1  0  0  0  0
 12 39  1  0  0  0  0
 13 40  1  0  0  0  0
 14 41  1  0  0  0  0
 17 42  1  0  0  0  0
 19 43  1  0  0  0  0
 20 44  1  0  0  0  0
 25 45  1  0  0  0  0
 25 46  1  0  0  0  0
 25 47  1  0  0  0  0
 28 48  1  0  0  0  0
 29 49  1  0  0  0  0
 31 50  1  0  0  0  0
 31 51  1  0  0  0  0
 32 52  1  0  0  0  0
 32 53  1  0  0  0  0
 33 54  1  0  0  0  0
 33 55  1  0  0  0  0
 33 56  1  0  0  0  0
M  END
> <ID>
53

> <IC50[uM]>
7.425

$$$$
53
  -OEChem-05192314313D
 Structure written by MMmdl.
 56 60  0     0  0  0  0  0  0999 V2000
   93.3094   49.8018  267.6715 C   0  0  0  0  0  0  0  0  0  0  0  0
   92.5663   47.3465  266.4764 C   0  0  0  0  0  0  0  0  0  0  0  0
   91.6141   48.3425  266.6765 C   0  0  0  0  0  0  0  0  0  0  0  0
   91.9847   49.5423  267.2840 C   0  0  0  0  0  0  0  0  0  0  0  0
   93.8976   47.5374  266.9026 C   0  0  0  0  0  0  0  0  0  0  0  0
   94.2817   48.7776  267.4988 C   0  0  0  0  0  0  0  0  0  0  0  0
   95.5685   48.9601  267.9272 N   0  0  0  0  0  0  0  0  0  0  0  0
   96.4515   47.9520  267.7392 C   0  0  0  0  0  0  0  0  0  0  0  0
   96.0722   46.7442  267.1750 C   0  0  0  0  0  0  0  0  0  0  0  0
   94.7966   46.5286  266.7520 N   0  0  0  0  0  0  0  0  0  0  0  0
   93.6558   51.0878  268.3201 C   0  0  0  0  0  0  0  0  0  0  0  0
   94.5958   51.9639  267.7545 C   0  0  0  0  0  0  0  0  0  0  0  0
   94.8801   53.1908  268.3506 C   0  0  0  0  0  0  0  0  0  0  0  0
   93.0752   51.3916  269.5378 C   0  0  0  0  0  0  0  0  0  0  0  0
   90.2756   48.1331  266.3189 N   0  0  0  0  0  0  0  0  0  0  0  0
   89.7176   47.3508  265.2916 C   0  0  0  0  0  0  0  0  0  0  0  0
   90.4208   47.1280  264.0996 C   0  0  0  0  0  0  0  0  0  0  0  0
   89.9177   46.4358  263.0468 N   0  0  0  0  0  0  0  0  0  0  0  0
   88.6627   45.9387  263.1665 C   0  0  0  0  0  0  0  0  0  0  0  0
   87.8896   46.0967  264.3155 C   0  0  0  0  0  0  0  0  0  0  0  0
   88.4252   46.8051  265.3987 C   0  0  0  0  0  0  0  0  0  0  0  0
   87.4830   46.8956  266.9271 S   0  0  0  0  0  0  0  0  0  0  0  0
   86.1384   46.3667  266.6674 O   0  0  0  0  0  0  0  0  0  0  0  0
   87.6481   48.2411  267.4789 O   0  0  0  0  0  0  0  0  0  0  0  0
   88.3835   45.6760  268.0451 C   0  0  0  0  0  0  0  0  0  0  0  0
   93.2883   52.6417  270.1079 C   0  0  0  0  0  0  0  0  0  0  0  0
   94.1853   53.5555  269.5070 C   0  0  0  0  0  0  0  0  0  0  0  0
   94.1740   54.7256  270.3504 C   0  0  0  0  0  0  0  0  0  0  0  0
   93.2801   54.4760  271.3702 C   0  0  0  0  0  0  0  0  0  0  0  0
   92.7561   53.2209  271.2520 N   0  0  0  0  0  0  0  0  0  0  0  0
   91.8097   52.5822  272.1667 C   0  0  0  0  0  0  0  0  0  0  0  0
   90.3901   52.3401  271.5852 C   0  0  0  0  0  0  0  0  0  0  0  0
   90.2277   52.2740  270.0518 C   0  0  0  0  0  0  0  0  0  0  0  0
   92.1958   46.4474  266.9906 H   0  0  0  0  0  0  0  0  0  0  0  0
   92.6051   47.1596  265.3931 H   0  0  0  0  0  0  0  0  0  0  0  0
   91.2302   50.2943  267.4617 H   0  0  0  0  0  0  0  0  0  0  0  0
   97.4801   48.0925  268.0370 H   0  0  0  0  0  0  0  0  0  0  0  0
   96.8044   45.9574  267.0687 H   0  0  0  0  0  0  0  0  0  0  0  0
   95.1056   51.6830  266.8448 H   0  0  0  0  0  0  0  0  0  0  0  0
   95.6244   53.8484  267.9264 H   0  0  0  0  0  0  0  0  0  0  0  0
   92.4598   50.6620  270.0431 H   0  0  0  0  0  0  0  0  0  0  0  0
   91.4195   47.5301  264.0145 H   0  0  0  0  0  0  0  0  0  0  0  0
   88.2422   45.3951  262.3333 H   0  0  0  0  0  0  0  0  0  0  0  0
   86.8947   45.6801  264.3697 H   0  0  0  0  0  0  0  0  0  0  0  0
   87.8892   45.6442  269.0273 H   0  0  0  0  0  0  0  0  0  0  0  0
   88.3593   44.6748  267.5900 H   0  0  0  0  0  0  0  0  0  0  0  0
   89.4283   45.9965  268.1708 H   0  0  0  0  0  0  0  0  0  0  0  0
   94.7547   55.6253  270.2100 H   0  0  0  0  0  0  0  0  0  0  0  0
   93.0294   55.1760  272.1535 H   0  0  0  0  0  0  0  0  0  0  0  0
   92.2269   51.6084  272.4629 H   0  0  0  0  0  0  0  0  0  0  0  0
   91.7090   53.2234  273.0548 H   0  0  0  0  0  0  0  0  0  0  0  0
   90.0306   51.3834  271.9921 H   0  0  0  0  0  0  0  0  0  0  0  0
   89.7472   53.1566  271.9456 H   0  0  0  0  0  0  0  0  0  0  0  0
   89.1710   52.0986  269.8017 H   0  0  0  0  0  0  0  0  0  0  0  0
   90.5567   53.2248  269.6070 H   0  0  0  0  0  0  0  0  0  0  0  0
   90.8400   51.4516  269.6535 H   0  0  0  0  0  0  0  0  0  0  0  0
  1  4  2  0  0  0  0
  1  6  1  0  0  0  0
  1 11  1  0  0  0  0
  2  3  1  0  0  0  0
  2  5  1  0  0  0  0
  3  4  1  0  0  0  0
  3 15  2  3  0  0  0
  5  6  2  0  0  0  0
  5 10  1  0  0  0  0
  6  7  1  0  0  0  0
  7  8  2  0  0  0  0
  8  9  1  0  0  0  0
  9 10  2  0  0  0  0
 11 12  2  0  0  0  0
 11 14  1  0  0  0  0
 12 13  1  0  0  0  0
 13 27  2  0  0  0  0
 14 26  2  0  0  0  0
 15 16  1  0  0  0  0
 16 17  2  0  0  0  0
 16 21  1  0  0  0  0
 17 18  1  0  0  0  0
 18 19  2  0  0  0  0
 19 20  1  0  0  0  0
 20 21  2  0  0  0  0
 21 22  1  0  0  0  0
 22 23  2  0  0  0  0
 22 24  2  0  0  0  0
 22 25  1  0  0  0  0
 26 27  1  0  0  0  0
 26 30  1  0  0  0  0
 27 28  1  0  0  0  0
 28 29  2  0  0  0  0
 29 30  1  0  0  0  0
 30 31  1  0  0  0  0
 31 32  1  0  0  0  0
 32 33  1  0  0  0  0
  2 34  1  0  0  0  0
  2 35  1  0  0  0  0
  4 36  1  0  0  0  0
  8 37  1  0  0  0  0
  9 38  1  0  0  0  0
 12 39  1  0  0  0  0
 13 40  1  0  0  0  0
 14 41  1  0  0  0  0
 17 42  1  0  0  0  0
 19 43  1  0  0  0  0
 20 44  1  0  0  0  0
 25 45  1  0  0  0  0
 25 46  1  0  0  0  0
 25 47  1  0  0  0  0
 28 48  1  0  0  0  0
 29 49  1  0  0  0  0
 31 50  1  0  0  0  0
 31 51  1  0  0  0  0
 32 52  1  0  0  0  0
 32 53  1  0  0  0  0
 33 54  1  0  0  0  0
 33 55  1  0  0  0  0
 33 56  1  0  0  0  0
M  END
> <ID>
53

> <IC50[uM]>
7.425

$$$$
53
  -OEChem-05192314313D
 Structure written by MMmdl.
 56 60  0     0  0  0  0  0  0999 V2000
   93.3094   49.8018  267.6715 C   0  0  0  0  0  0  0  0  0  0  0  0
   92.5663   47.3465  266.4764 C   0  0  0  0  0  0  0  0  0  0  0  0
   91.6141   48.3425  266.6765 C   0  0  0  0  0  0  0  0  0  0  0  0
   91.9847   49.5423  267.2840 C   0  0  0  0  0  0  0  0  0  0  0  0
   93.8976   47.5374  266.9026 C   0  0  0  0  0  0  0  0  0  0  0  0
   94.2817   48.7776  267.4988 C   0  0  0  0  0  0  0  0  0  0  0  0
   95.5685   48.9601  267.9272 N   0  0  0  0  0  0  0  0  0  0  0  0
   96.4515   47.9520  267.7392 C   0  0  0  0  0  0  0  0  0  0  0  0
   96.0722   46.7442  267.1750 C   0  0  0  0  0  0  0  0  0  0  0  0
   94.7966   46.5286  266.7520 N   0  0  0  0  0  0  0  0  0  0  0  0
   93.6558   51.0878  268.3201 C   0  0  0  0  0  0  0  0  0  0  0  0
   94.5958   51.9639  267.7545 C   0  0  0  0  0  0  0  0  0  0  0  0
   94.8801   53.1908  268.3506 C   0  0  0  0  0  0  0  0  0  0  0  0
   93.0752   51.3916  269.5378 C   0  0  0  0  0  0  0  0  0  0  0  0
   90.2756   48.1331  266.3189 N   0  0  0  0  0  0  0  0  0  0  0  0
   89.7176   47.3508  265.2916 C   0  0  0  0  0  0  0  0  0  0  0  0
   90.4208   47.1280  264.0996 C   0  0  0  0  0  0  0  0  0  0  0  0
   89.9177   46.4358  263.0468 N   0  0  0  0  0  0  0  0  0  0  0  0
   88.6627   45.9387  263.1665 C   0  0  0  0  0  0  0  0  0  0  0  0
   87.8896   46.0967  264.3155 C   0  0  0  0  0  0  0  0  0  0  0  0
   88.4252   46.8051  265.3987 C   0  0  0  0  0  0  0  0  0  0  0  0
   87.4830   46.8956  266.9271 S   0  0  0  0  0  0  0  0  0  0  0  0
   86.1384   46.3667  266.6674 O   0  0  0  0  0  0  0  0  0  0  0  0
   87.6481   48.2411  267.4789 O   0  0  0  0  0  0  0  0  0  0  0  0
   88.3835   45.6760  268.0451 C   0  0  0  0  0  0  0  0  0  0  0  0
   93.2883   52.6417  270.1079 C   0  0  0  0  0  0  0  0  0  0  0  0
   94.1853   53.5555  269.5070 C   0  0  0  0  0  0  0  0  0  0  0  0
   94.1740   54.7256  270.3504 C   0  0  0  0  0  0  0  0  0  0  0  0
   93.2801   54.4760  271.3702 C   0  0  0  0  0  0  0  0  0  0  0  0
   92.7561   53.2209  271.2520 N   0  0  0  0  0  0  0  0  0  0  0  0
   91.8097   52.5822  272.1667 C   0  0  0  0  0  0  0  0  0  0  0  0
   90.3901   52.3401  271.5852 C   0  0  0  0  0  0  0  0  0  0  0  0
   90.2277   52.2740  270.0518 C   0  0  0  0  0  0  0  0  0  0  0  0
   92.2843   46.4231  265.9925 H   0  0  0  0  0  0  0  0  0  0  0  0
   91.3749   49.6272  268.1956 H   0  0  0  0  0  0  0  0  0  0  0  0
   91.7071   50.3419  266.5814 H   0  0  0  0  0  0  0  0  0  0  0  0
   97.4801   48.0925  268.0370 H   0  0  0  0  0  0  0  0  0  0  0  0
   96.8044   45.9574  267.0687 H   0  0  0  0  0  0  0  0  0  0  0  0
   95.1056   51.6830  266.8448 H   0  0  0  0  0  0  0  0  0  0  0  0
   95.6244   53.8484  267.9264 H   0  0  0  0  0  0  0  0  0  0  0  0
   92.4598   50.6620  270.0431 H   0  0  0  0  0  0  0  0  0  0  0  0
   91.4195   47.5301  264.0145 H   0  0  0  0  0  0  0  0  0  0  0  0
   88.2422   45.3951  262.3333 H   0  0  0  0  0  0  0  0  0  0  0  0
   86.8947   45.6801  264.3697 H   0  0  0  0  0  0  0  0  0  0  0  0
   87.8892   45.6442  269.0273 H   0  0  0  0  0  0  0  0  0  0  0  0
   88.3593   44.6748  267.5900 H   0  0  0  0  0  0  0  0  0  0  0  0
   89.4283   45.9965  268.1708 H   0  0  0  0  0  0  0  0  0  0  0  0
   94.7547   55.6253  270.2100 H   0  0  0  0  0  0  0  0  0  0  0  0
   93.0294   55.1760  272.1535 H   0  0  0  0  0  0  0  0  0  0  0  0
   92.2269   51.6084  272.4629 H   0  0  0  0  0  0  0  0  0  0  0  0
   91.7090   53.2234  273.0548 H   0  0  0  0  0  0  0  0  0  0  0  0
   90.0306   51.3834  271.9921 H   0  0  0  0  0  0  0  0  0  0  0  0
   89.7472   53.1566  271.9456 H   0  0  0  0  0  0  0  0  0  0  0  0
   89.1710   52.0986  269.8017 H   0  0  0  0  0  0  0  0  0  0  0  0
   90.5567   53.2248  269.6070 H   0  0  0  0  0  0  0  0  0  0  0  0
   90.8400   51.4516  269.6535 H   0  0  0  0  0  0  0  0  0  0  0  0
  1  4  1  0  0  0  0
  1  6  2  0  0  0  0
  1 11  1  0  0  0  0
  2  3  1  0  0  0  0
  2  5  2  0  0  0  0
  3  4  1  0  0  0  0
  3 15  2  3  0  0  0
  5  6  1  0  0  0  0
  5 10  1  0  0  0  0
  6  7  1  0  0  0  0
  7  8  2  0  0  0  0
  8  9  1  0  0  0  0
  9 10  2  0  0  0  0
 11 12  2  0  0  0  0
 11 14  1  0  0  0  0
 12 13  1  0  0  0  0
 13 27  2  0  0  0  0
 14 26  2  0  0  0  0
 15 16  1  0  0  0  0
 16 17  2  0  0  0  0
 16 21  1  0  0  0  0
 17 18  1  0  0  0  0
 18 19  2  0  0  0  0
 19 20  1  0  0  0  0
 20 21  2  0  0  0  0
 21 22  1  0  0  0  0
 22 23  2  0  0  0  0
 22 24  2  0  0  0  0
 22 25  1  0  0  0  0
 26 27  1  0  0  0  0
 26 30  1  0  0  0  0
 27 28  1  0  0  0  0
 28 29  2  0  0  0  0
 29 30  1  0  0  0  0
 30 31  1  0  0  0  0
 31 32  1  0  0  0  0
 32 33  1  0  0  0  0
  2 34  1  0  0  0  0
  4 35  1  0  0  0  0
  4 36  1  0  0  0  0
  8 37  1  0  0  0  0
  9 38  1  0  0  0  0
 12 39  1  0  0  0  0
 13 40  1  0  0  0  0
 14 41  1  0  0  0  0
 17 42  1  0  0  0  0
 19 43  1  0  0  0  0
 20 44  1  0  0  0  0
 25 45  1  0  0  0  0
 25 46  1  0  0  0  0
 25 47  1  0  0  0  0
 28 48  1  0  0  0  0
 29 49  1  0  0  0  0
 31 50  1  0  0  0  0
 31 51  1  0  0  0  0
 32 52  1  0  0  0  0
 32 53  1  0  0  0  0
 33 54  1  0  0  0  0
 33 55  1  0  0  0  0
 33 56  1  0  0  0  0
M  END
> <ID>
53

> <IC50[uM]>
7.425

$$$$
53
  -OEChem-05192314313D
 Structure written by MMmdl.
 56 60  0     1  0  0  0  0  0999 V2000
   93.3094   49.8018  267.6715 C   0  0  0  0  0  0  0  0  0  0  0  0
   92.5663   47.3465  266.4764 C   0  0  0  0  0  0  0  0  0  0  0  0
   91.6141   48.3425  266.6765 C   0  0  0  0  0  0  0  0  0  0  0  0
   91.9847   49.5423  267.2840 C   0  0  0  0  0  0  0  0  0  0  0  0
   93.8976   47.5374  266.9026 C   0  0  0  0  0  0  0  0  0  0  0  0
   94.2817   48.7776  267.4988 C   0  0  0  0  0  0  0  0  0  0  0  0
   95.5685   48.9601  267.9272 N   0  0  0  0  0  0  0  0  0  0  0  0
   96.4515   47.9520  267.7392 C   0  0  0  0  0  0  0  0  0  0  0  0
   96.0722   46.7442  267.1750 C   0  0  0  0  0  0  0  0  0  0  0  0
   94.7966   46.5286  266.7520 N   0  0  0  0  0  0  0  0  0  0  0  0
   93.6558   51.0878  268.3201 C   0  0  0  0  0  0  0  0  0  0  0  0
   94.5958   51.9639  267.7545 C   0  0  0  0  0  0  0  0  0  0  0  0
   94.8801   53.1908  268.3506 C   0  0  0  0  0  0  0  0  0  0  0  0
   93.0752   51.3916  269.5378 C   0  0  0  0  0  0  0  0  0  0  0  0
   90.2756   48.1331  266.3189 N   0  0  0  0  0  0  0  0  0  0  0  0
   89.7176   47.3508  265.2916 C   0  0  0  0  0  0  0  0  0  0  0  0
   90.4208   47.1280  264.0996 C   0  0  0  0  0  0  0  0  0  0  0  0
   89.9177   46.4358  263.0468 N   0  0  0  0  0  0  0  0  0  0  0  0
   88.6627   45.9387  263.1665 C   0  0  0  0  0  0  0  0  0  0  0  0
   87.8896   46.0967  264.3155 C   0  0  0  0  0  0  0  0  0  0  0  0
   88.4252   46.8051  265.3987 C   0  0  3  0  0  0  0  0  0  0  0  0
   87.4830   46.8956  266.9271 S   0  0  0  0  0  0  0  0  0  0  0  0
   86.1384   46.3667  266.6674 O   0  0  0  0  0  0  0  0  0  0  0  0
   87.6481   48.2411  267.4789 O   0  0  0  0  0  0  0  0  0  0  0  0
   88.3835   45.6760  268.0451 C   0  0  0  0  0  0  0  0  0  0  0  0
   93.2883   52.6417  270.1079 C   0  0  0  0  0  0  0  0  0  0  0  0
   94.1853   53.5555  269.5070 C   0  0  0  0  0  0  0  0  0  0  0  0
   94.1740   54.7256  270.3504 C   0  0  0  0  0  0  0  0  0  0  0  0
   93.2801   54.4760  271.3702 C   0  0  0  0  0  0  0  0  0  0  0  0
   92.7561   53.2209  271.2520 N   0  0  0  0  0  0  0  0  0  0  0  0
   91.8097   52.5822  272.1667 C   0  0  0  0  0  0  0  0  0  0  0  0
   90.3901   52.3401  271.5852 C   0  0  0  0  0  0  0  0  0  0  0  0
   90.2277   52.2740  270.0518 C   0  0  0  0  0  0  0  0  0  0  0  0
   92.2843   46.4231  265.9925 H   0  0  0  0  0  0  0  0  0  0  0  0
   91.2302   50.2943  267.4617 H   0  0  0  0  0  0  0  0  0  0  0  0
   97.4801   48.0925  268.0370 H   0  0  0  0  0  0  0  0  0  0  0  0
   96.8044   45.9574  267.0687 H   0  0  0  0  0  0  0  0  0  0  0  0
   95.1056   51.6830  266.8448 H   0  0  0  0  0  0  0  0  0  0  0  0
   95.6244   53.8484  267.9264 H   0  0  0  0  0  0  0  0  0  0  0  0
   92.4598   50.6620  270.0431 H   0  0  0  0  0  0  0  0  0  0  0  0
   91.4195   47.5301  264.0145 H   0  0  0  0  0  0  0  0  0  0  0  0
   88.2422   45.3951  262.3333 H   0  0  0  0  0  0  0  0  0  0  0  0
   86.8947   45.6801  264.3697 H   0  0  0  0  0  0  0  0  0  0  0  0
   87.9730   47.7421  265.0417 H   0  0  0  0  0  0  0  0  0  0  0  0
   87.8892   45.6442  269.0273 H   0  0  0  0  0  0  0  0  0  0  0  0
   88.3593   44.6748  267.5900 H   0  0  0  0  0  0  0  0  0  0  0  0
   89.4283   45.9965  268.1708 H   0  0  0  0  0  0  0  0  0  0  0  0
   94.7547   55.6253  270.2100 H   0  0  0  0  0  0  0  0  0  0  0  0
   93.0294   55.1760  272.1535 H   0  0  0  0  0  0  0  0  0  0  0  0
   92.2269   51.6084  272.4629 H   0  0  0  0  0  0  0  0  0  0  0  0
   91.7090   53.2234  273.0548 H   0  0  0  0  0  0  0  0  0  0  0  0
   90.0306   51.3834  271.9921 H   0  0  0  0  0  0  0  0  0  0  0  0
   89.7472   53.1566  271.9456 H   0  0  0  0  0  0  0  0  0  0  0  0
   89.1710   52.0986  269.8017 H   0  0  0  0  0  0  0  0  0  0  0  0
   90.5567   53.2248  269.6070 H   0  0  0  0  0  0  0  0  0  0  0  0
   90.8400   51.4516  269.6535 H   0  0  0  0  0  0  0  0  0  0  0  0
  1  4  2  0  0  0  0
  1  6  1  0  0  0  0
  1 11  1  0  0  0  0
  2  3  2  0  0  0  0
  2  5  1  0  0  0  0
  3  4  1  0  0  0  0
  3 15  1  0  0  0  0
  5  6  2  0  0  0  0
  5 10  1  0  0  0  0
  6  7  1  0  0  0  0
  7  8  2  0  0  0  0
  8  9  1  0  0  0  0
  9 10  2  0  0  0  0
 11 12  2  0  0  0  0
 11 14  1  0  0  0  0
 12 13  1  0  0  0  0
 13 27  2  0  0  0  0
 14 26  2  0  0  0  0
 15 16  2  0  0  0  0
 16 17  1  0  0  0  0
 16 21  1  0  0  0  0
 17 18  2  0  0  0  0
 18 19  1  0  0  0  0
 19 20  2  0  0  0  0
 20 21  1  0  0  0  0
 21 22  1  0  0  0  0
 22 23  2  0  0  0  0
 22 24  2  0  0  0  0
 22 25  1  0  0  0  0
 26 27  1  0  0  0  0
 26 30  1  0  0  0  0
 27 28  1  0  0  0  0
 28 29  2  0  0  0  0
 29 30  1  0  0  0  0
 30 31  1  0  0  0  0
 31 32  1  0  0  0  0
 32 33  1  0  0  0  0
  2 34  1  0  0  0  0
  4 35  1  0  0  0  0
  8 36  1  0  0  0  0
  9 37  1  0  0  0  0
 12 38  1  0  0  0  0
 13 39  1  0  0  0  0
 14 40  1  0  0  0  0
 17 41  1  0  0  0  0
 19 42  1  0  0  0  0
 20 43  1  0  0  0  0
 21 44  1  0  0  0  0
 25 45  1  0  0  0  0
 25 46  1  0  0  0  0
 25 47  1  0  0  0  0
 28 48  1  0  0  0  0
 29 49  1  0  0  0  0
 31 50  1  0  0  0  0
 31 51  1  0  0  0  0
 32 52  1  0  0  0  0
 32 53  1  0  0  0  0
 33 54  1  0  0  0  0
 33 55  1  0  0  0  0
 33 56  1  0  0  0  0
M  END
> <ID>
53

> <IC50[uM]>
7.425

$$$$
53
  -OEChem-05192314313D
 Structure written by MMmdl.
 56 60  0     0  0  0  0  0  0999 V2000
   93.3094   49.8018  267.6715 C   0  0  0  0  0  0  0  0  0  0  0  0
   92.5663   47.3465  266.4764 C   0  0  0  0  0  0  0  0  0  0  0  0
   91.6141   48.3425  266.6765 C   0  0  0  0  0  0  0  0  0  0  0  0
   91.9847   49.5423  267.2840 C   0  0  0  0  0  0  0  0  0  0  0  0
   93.8976   47.5374  266.9026 C   0  0  0  0  0  0  0  0  0  0  0  0
   94.2817   48.7776  267.4988 C   0  0  0  0  0  0  0  0  0  0  0  0
   95.5685   48.9601  267.9272 N   0  0  0  0  0  0  0  0  0  0  0  0
   96.4515   47.9520  267.7392 C   0  0  0  0  0  0  0  0  0  0  0  0
   96.0722   46.7442  267.1750 C   0  0  0  0  0  0  0  0  0  0  0  0
   94.7966   46.5286  266.7520 N   0  0  0  0  0  0  0  0  0  0  0  0
   93.6558   51.0878  268.3201 C   0  0  0  0  0  0  0  0  0  0  0  0
   94.5958   51.9639  267.7545 C   0  0  0  0  0  0  0  0  0  0  0  0
   94.8801   53.1908  268.3506 C   0  0  0  0  0  0  0  0  0  0  0  0
   93.0752   51.3916  269.5378 C   0  0  0  0  0  0  0  0  0  0  0  0
   90.2756   48.1331  266.3189 N   0  0  0  0  0  0  0  0  0  0  0  0
   89.7176   47.3508  265.2916 C   0  0  0  0  0  0  0  0  0  0  0  0
   90.4208   47.1280  264.0996 C   0  0  0  0  0  0  0  0  0  0  0  0
   89.9177   46.4358  263.0468 N   0  0  0  0  0  0  0  0  0  0  0  0
   88.6627   45.9387  263.1665 C   0  0  0  0  0  0  0  0  0  0  0  0
   87.8896   46.0967  264.3155 C   0  0  0  0  0  0  0  0  0  0  0  0
   88.4252   46.8051  265.3987 C   0  0  0  0  0  0  0  0  0  0  0  0
   87.4830   46.8956  266.9271 S   0  0  0  0  0  0  0  0  0  0  0  0
   86.1384   46.3667  266.6674 O   0  0  0  0  0  0  0  0  0  0  0  0
   87.6481   48.2411  267.4789 O   0  0  0  0  0  0  0  0  0  0  0  0
   88.3835   45.6760  268.0451 C   0  0  0  0  0  0  0  0  0  0  0  0
   93.2883   52.6417  270.1079 C   0  0  0  0  0  0  0  0  0  0  0  0
   94.1853   53.5555  269.5070 C   0  0  0  0  0  0  0  0  0  0  0  0
   94.1740   54.7256  270.3504 C   0  0  0  0  0  0  0  0  0  0  0  0
   93.2801   54.4760  271.3702 C   0  0  0  0  0  0  0  0  0  0  0  0
   92.7561   53.2209  271.2520 N   0  0  0  0  0  0  0  0  0  0  0  0
   91.8097   52.5822  272.1667 C   0  0  0  0  0  0  0  0  0  0  0  0
   90.3901   52.3401  271.5852 C   0  0  0  0  0  0  0  0  0  0  0  0
   90.2277   52.2740  270.0518 C   0  0  0  0  0  0  0  0  0  0  0  0
   92.2843   46.4231  265.9925 H   0  0  0  0  0  0  0  0  0  0  0  0
   91.2302   50.2943  267.4617 H   0  0  0  0  0  0  0  0  0  0  0  0
   97.4801   48.0925  268.0370 H   0  0  0  0  0  0  0  0  0  0  0  0
   96.8044   45.9574  267.0687 H   0  0  0  0  0  0  0  0  0  0  0  0
   95.1056   51.6830  266.8448 H   0  0  0  0  0  0  0  0  0  0  0  0
   95.6244   53.8484  267.9264 H   0  0  0  0  0  0  0  0  0  0  0  0
   92.4598   50.6620  270.0431 H   0  0  0  0  0  0  0  0  0  0  0  0
   91.4195   47.5301  264.0145 H   0  0  0  0  0  0  0  0  0  0  0  0
   88.0808   46.3843  262.3462 H   0  0  0  0  0  0  0  0  0  0  0  0
   88.7500   44.8538  263.0069 H   0  0  0  0  0  0  0  0  0  0  0  0
   86.8947   45.6801  264.3697 H   0  0  0  0  0  0  0  0  0  0  0  0
   87.8892   45.6442  269.0273 H   0  0  0  0  0  0  0  0  0  0  0  0
   88.3593   44.6748  267.5900 H   0  0  0  0  0  0  0  0  0  0  0  0
   89.4283   45.9965  268.1708 H   0  0  0  0  0  0  0  0  0  0  0  0
   94.7547   55.6253  270.2100 H   0  0  0  0  0  0  0  0  0  0  0  0
   93.0294   55.1760  272.1535 H   0  0  0  0  0  0  0  0  0  0  0  0
   92.2269   51.6084  272.4629 H   0  0  0  0  0  0  0  0  0  0  0  0
   91.7090   53.2234  273.0548 H   0  0  0  0  0  0  0  0  0  0  0  0
   90.0306   51.3834  271.9921 H   0  0  0  0  0  0  0  0  0  0  0  0
   89.7472   53.1566  271.9456 H   0  0  0  0  0  0  0  0  0  0  0  0
   89.1710   52.0986  269.8017 H   0  0  0  0  0  0  0  0  0  0  0  0
   90.5567   53.2248  269.6070 H   0  0  0  0  0  0  0  0  0  0  0  0
   90.8400   51.4516  269.6535 H   0  0  0  0  0  0  0  0  0  0  0  0
  1  4  2  0  0  0  0
  1  6  1  0  0  0  0
  1 11  1  0  0  0  0
  2  3  2  0  0  0  0
  2  5  1  0  0  0  0
  3  4  1  0  0  0  0
  3 15  1  0  0  0  0
  5  6  2  0  0  0  0
  5 10  1  0  0  0  0
  6  7  1  0  0  0  0
  7  8  2  0  0  0  0
  8  9  1  0  0  0  0
  9 10  2  0  0  0  0
 11 12  2  0  0  0  0
 11 14  1  0  0  0  0
 12 13  1  0  0  0  0
 13 27  2  0  0  0  0
 14 26  2  0  0  0  0
 15 16  2  0  0  0  0
 16 17  1  0  0  0  0
 16 21  1  0  0  0  0
 17 18  2  0  0  0  0
 18 19  1  0  0  0  0
 19 20  1  0  0  0  0
 20 21  2  0  0  0  0
 21 22  1  0  0  0  0
 22 23  2  0  0  0  0
 22 24  2  0  0  0  0
 22 25  1  0  0  0  0
 26 27  1  0  0  0  0
 26 30  1  0  0  0  0
 27 28  1  0  0  0  0
 28 29  2  0  0  0  0
 29 30  1  0  0  0  0
 30 31  1  0  0  0  0
 31 32  1  0  0  0  0
 32 33  1  0  0  0  0
  2 34  1  0  0  0  0
  4 35  1  0  0  0  0
  8 36  1  0  0  0  0
  9 37  1  0  0  0  0
 12 38  1  0  0  0  0
 13 39  1  0  0  0  0
 14 40  1  0  0  0  0
 17 41  1  0  0  0  0
 19 42  1  0  0  0  0
 19 43  1  0  0  0  0
 20 44  1  0  0  0  0
 25 45  1  0  0  0  0
 25 46  1  0  0  0  0
 25 47  1  0  0  0  0
 28 48  1  0  0  0  0
 29 49  1  0  0  0  0
 31 50  1  0  0  0  0
 31 51  1  0  0  0  0
 32 52  1  0  0  0  0
 32 53  1  0  0  0  0
 33 54  1  0  0  0  0
 33 55  1  0  0  0  0
 33 56  1  0  0  0  0
M  END
> <ID>
53

> <IC50[uM]>
7.425

$$$$
53
  -OEChem-05192314313D
 Structure written by MMmdl.
 56 60  0     0  0  0  0  0  0999 V2000
   93.3094   49.8018  267.6715 C   0  0  0  0  0  0  0  0  0  0  0  0
   92.5663   47.3465  266.4764 C   0  0  0  0  0  0  0  0  0  0  0  0
   91.6141   48.3425  266.6765 C   0  0  0  0  0  0  0  0  0  0  0  0
   91.9847   49.5423  267.2840 C   0  0  0  0  0  0  0  0  0  0  0  0
   93.8976   47.5374  266.9026 C   0  0  0  0  0  0  0  0  0  0  0  0
   94.2817   48.7776  267.4988 C   0  0  0  0  0  0  0  0  0  0  0  0
   95.5685   48.9601  267.9272 N   0  0  0  0  0  0  0  0  0  0  0  0
   96.4515   47.9520  267.7392 C   0  0  0  0  0  0  0  0  0  0  0  0
   96.0722   46.7442  267.1750 C   0  0  0  0  0  0  0  0  0  0  0  0
   94.7966   46.5286  266.7520 N   0  0  0  0  0  0  0  0  0  0  0  0
   93.6558   51.0878  268.3201 C   0  0  0  0  0  0  0  0  0  0  0  0
   94.5958   51.9639  267.7545 C   0  0  0  0  0  0  0  0  0  0  0  0
   94.8801   53.1908  268.3506 C   0  0  0  0  0  0  0  0  0  0  0  0
   93.0752   51.3916  269.5378 C   0  0  0  0  0  0  0  0  0  0  0  0
   90.2756   48.1331  266.3189 N   0  0  0  0  0  0  0  0  0  0  0  0
   89.7176   47.3508  265.2916 C   0  0  0  0  0  0  0  0  0  0  0  0
   90.4208   47.1280  264.0996 C   0  0  0  0  0  0  0  0  0  0  0  0
   89.9177   46.4358  263.0468 N   0  0  0  0  0  0  0  0  0  0  0  0
   88.6627   45.9387  263.1665 C   0  0  0  0  0  0  0  0  0  0  0  0
   87.8896   46.0967  264.3155 C   0  0  0  0  0  0  0  0  0  0  0  0
   88.4252   46.8051  265.3987 C   0  0  0  0  0  0  0  0  0  0  0  0
   87.4830   46.8956  266.9271 S   0  0  0  0  0  0  0  0  0  0  0  0
   86.1384   46.3667  266.6674 O   0  0  0  0  0  0  0  0  0  0  0  0
   87.6481   48.2411  267.4789 O   0  0  0  0  0  0  0  0  0  0  0  0
   88.3835   45.6760  268.0451 C   0  0  0  0  0  0  0  0  0  0  0  0
   93.2883   52.6417  270.1079 C   0  0  0  0  0  0  0  0  0  0  0  0
   94.1853   53.5555  269.5070 C   0  0  0  0  0  0  0  0  0  0  0  0
   94.1740   54.7256  270.3504 C   0  0  0  0  0  0  0  0  0  0  0  0
   93.2801   54.4760  271.3702 C   0  0  0  0  0  0  0  0  0  0  0  0
   92.7561   53.2209  271.2520 N   0  0  0  0  0  0  0  0  0  0  0  0
   91.8097   52.5822  272.1667 C   0  0  0  0  0  0  0  0  0  0  0  0
   90.3901   52.3401  271.5852 C   0  0  0  0  0  0  0  0  0  0  0  0
   90.2277   52.2740  270.0518 C   0  0  0  0  0  0  0  0  0  0  0  0
   92.2843   46.4231  265.9925 H   0  0  0  0  0  0  0  0  0  0  0  0
   91.2302   50.2943  267.4617 H   0  0  0  0  0  0  0  0  0  0  0  0
   97.4801   48.0925  268.0370 H   0  0  0  0  0  0  0  0  0  0  0  0
   96.8044   45.9574  267.0687 H   0  0  0  0  0  0  0  0  0  0  0  0
   95.1056   51.6830  266.8448 H   0  0  0  0  0  0  0  0  0  0  0  0
   95.6244   53.8484  267.9264 H   0  0  0  0  0  0  0  0  0  0  0  0
   92.4598   50.6620  270.0431 H   0  0  0  0  0  0  0  0  0  0  0  0
   90.6729   48.1252  263.7096 H   0  0  0  0  0  0  0  0  0  0  0  0
   91.3433   46.6037  264.3895 H   0  0  0  0  0  0  0  0  0  0  0  0
   88.2422   45.3951  262.3333 H   0  0  0  0  0  0  0  0  0  0  0  0
   86.8947   45.6801  264.3697 H   0  0  0  0  0  0  0  0  0  0  0  0
   87.8892   45.6442  269.0273 H   0  0  0  0  0  0  0  0  0  0  0  0
   88.3593   44.6748  267.5900 H   0  0  0  0  0  0  0  0  0  0  0  0
   89.4283   45.9965  268.1708 H   0  0  0  0  0  0  0  0  0  0  0  0
   94.7547   55.6253  270.2100 H   0  0  0  0  0  0  0  0  0  0  0  0
   93.0294   55.1760  272.1535 H   0  0  0  0  0  0  0  0  0  0  0  0
   92.2269   51.6084  272.4629 H   0  0  0  0  0  0  0  0  0  0  0  0
   91.7090   53.2234  273.0548 H   0  0  0  0  0  0  0  0  0  0  0  0
   90.0306   51.3834  271.9921 H   0  0  0  0  0  0  0  0  0  0  0  0
   89.7472   53.1566  271.9456 H   0  0  0  0  0  0  0  0  0  0  0  0
   89.1710   52.0986  269.8017 H   0  0  0  0  0  0  0  0  0  0  0  0
   90.5567   53.2248  269.6070 H   0  0  0  0  0  0  0  0  0  0  0  0
   90.8400   51.4516  269.6535 H   0  0  0  0  0  0  0  0  0  0  0  0
  1  4  2  0  0  0  0
  1  6  1  0  0  0  0
  1 11  1  0  0  0  0
  2  3  2  0  0  0  0
  2  5  1  0  0  0  0
  3  4  1  0  0  0  0
  3 15  1  0  0  0  0
  5  6  2  0  0  0  0
  5 10  1  0  0  0  0
  6  7  1  0  0  0  0
  7  8  2  0  0  0  0
  8  9  1  0  0  0  0
  9 10  2  0  0  0  0
 11 12  2  0  0  0  0
 11 14  1  0  0  0  0
 12 13  1  0  0  0  0
 13 27  2  0  0  0  0
 14 26  2  0  0  0  0
 15 16  2  0  0  0  0
 16 17  1  0  0  0  0
 16 21  1  0  0  0  0
 17 18  1  0  0  0  0
 18 19  2  0  0  0  0
 19 20  1  0  0  0  0
 20 21  2  0  0  0  0
 21 22  1  0  0  0  0
 22 23  2  0  0  0  0
 22 24  2  0  0  0  0
 22 25  1  0  0  0  0
 26 27  1  0  0  0  0
 26 30  1  0  0  0  0
 27 28  1  0  0  0  0
 28 29  2  0  0  0  0
 29 30  1  0  0  0  0
 30 31  1  0  0  0  0
 31 32  1  0  0  0  0
 32 33  1  0  0  0  0
  2 34  1  0  0  0  0
  4 35  1  0  0  0  0
  8 36  1  0  0  0  0
  9 37  1  0  0  0  0
 12 38  1  0  0  0  0
 13 39  1  0  0  0  0
 14 40  1  0  0  0  0
 17 41  1  0  0  0  0
 17 42  1  0  0  0  0
 19 43  1  0  0  0  0
 20 44  1  0  0  0  0
 25 45  1  0  0  0  0
 25 46  1  0  0  0  0
 25 47  1  0  0  0  0
 28 48  1  0  0  0  0
 29 49  1  0  0  0  0
 31 50  1  0  0  0  0
 31 51  1  0  0  0  0
 32 52  1  0  0  0  0
 32 53  1  0  0  0  0
 33 54  1  0  0  0  0
 33 55  1  0  0  0  0
 33 56  1  0  0  0  0
M  END
> <ID>
53

> <IC50[uM]>
7.425

$$$$
53
  -OEChem-05192314313D
 Structure written by MMmdl.
 56 60  0     1  0  0  0  0  0999 V2000
   93.3094   49.8018  267.6715 C   0  0  0  0  0  0  0  0  0  0  0  0
   92.5663   47.3465  266.4764 C   0  0  0  0  0  0  0  0  0  0  0  0
   91.6141   48.3425  266.6765 C   0  0  0  0  0  0  0  0  0  0  0  0
   91.9847   49.5423  267.2840 C   0  0  0  0  0  0  0  0  0  0  0  0
   93.8976   47.5374  266.9026 C   0  0  0  0  0  0  0  0  0  0  0  0
   94.2817   48.7776  267.4988 C   0  0  3  0  0  0  0  0  0  0  0  0
   95.5685   48.9601  267.9272 N   0  0  0  0  0  0  0  0  0  0  0  0
   96.4515   47.9520  267.7392 C   0  0  0  0  0  0  0  0  0  0  0  0
   96.0722   46.7442  267.1750 C   0  0  0  0  0  0  0  0  0  0  0  0
   94.7966   46.5286  266.7520 N   0  0  0  0  0  0  0  0  0  0  0  0
   93.6558   51.0878  268.3201 C   0  0  0  0  0  0  0  0  0  0  0  0
   94.5958   51.9639  267.7545 C   0  0  0  0  0  0  0  0  0  0  0  0
   94.8801   53.1908  268.3506 C   0  0  0  0  0  0  0  0  0  0  0  0
   93.0752   51.3916  269.5378 C   0  0  0  0  0  0  0  0  0  0  0  0
   90.2756   48.1331  266.3189 N   0  0  0  0  0  0  0  0  0  0  0  0
   89.7176   47.3508  265.2916 C   0  0  0  0  0  0  0  0  0  0  0  0
   90.4208   47.1280  264.0996 C   0  0  0  0  0  0  0  0  0  0  0  0
   89.9177   46.4358  263.0468 N   0  0  0  0  0  0  0  0  0  0  0  0
   88.6627   45.9387  263.1665 C   0  0  0  0  0  0  0  0  0  0  0  0
   87.8896   46.0967  264.3155 C   0  0  0  0  0  0  0  0  0  0  0  0
   88.4252   46.8051  265.3987 C   0  0  0  0  0  0  0  0  0  0  0  0
   87.4830   46.8956  266.9271 S   0  0  0  0  0  0  0  0  0  0  0  0
   86.1384   46.3667  266.6674 O   0  0  0  0  0  0  0  0  0  0  0  0
   87.6481   48.2411  267.4789 O   0  0  0  0  0  0  0  0  0  0  0  0
   88.3835   45.6760  268.0451 C   0  0  0  0  0  0  0  0  0  0  0  0
   93.2883   52.6417  270.1079 C   0  0  0  0  0  0  0  0  0  0  0  0
   94.1853   53.5555  269.5070 C   0  0  0  0  0  0  0  0  0  0  0  0
   94.1740   54.7256  270.3504 C   0  0  0  0  0  0  0  0  0  0  0  0
   93.2801   54.4760  271.3702 C   0  0  0  0  0  0  0  0  0  0  0  0
   92.7561   53.2209  271.2520 N   0  0  0  0  0  0  0  0  0  0  0  0
   91.8097   52.5822  272.1667 C   0  0  0  0  0  0  0  0  0  0  0  0
   90.3901   52.3401  271.5852 C   0  0  0  0  0  0  0  0  0  0  0  0
   90.2277   52.2740  270.0518 C   0  0  0  0  0  0  0  0  0  0  0  0
   92.2843   46.4231  265.9925 H   0  0  0  0  0  0  0  0  0  0  0  0
   91.2302   50.2943  267.4617 H   0  0  0  0  0  0  0  0  0  0  0  0
   94.5441   49.1816  266.5099 H   0  0  0  0  0  0  0  0  0  0  0  0
   97.4801   48.0925  268.0370 H   0  0  0  0  0  0  0  0  0  0  0  0
   96.8044   45.9574  267.0687 H   0  0  0  0  0  0  0  0  0  0  0  0
   95.1056   51.6830  266.8448 H   0  0  0  0  0  0  0  0  0  0  0  0
   95.6244   53.8484  267.9264 H   0  0  0  0  0  0  0  0  0  0  0  0
   92.4598   50.6620  270.0431 H   0  0  0  0  0  0  0  0  0  0  0  0
   91.4195   47.5301  264.0145 H   0  0  0  0  0  0  0  0  0  0  0  0
   88.2422   45.3951  262.3333 H   0  0  0  0  0  0  0  0  0  0  0  0
   86.8947   45.6801  264.3697 H   0  0  0  0  0  0  0  0  0  0  0  0
   87.8892   45.6442  269.0273 H   0  0  0  0  0  0  0  0  0  0  0  0
   88.3593   44.6748  267.5900 H   0  0  0  0  0  0  0  0  0  0  0  0
   89.4283   45.9965  268.1708 H   0  0  0  0  0  0  0  0  0  0  0  0
   94.7547   55.6253  270.2100 H   0  0  0  0  0  0  0  0  0  0  0  0
   93.0294   55.1760  272.1535 H   0  0  0  0  0  0  0  0  0  0  0  0
   92.2269   51.6084  272.4629 H   0  0  0  0  0  0  0  0  0  0  0  0
   91.7090   53.2234  273.0548 H   0  0  0  0  0  0  0  0  0  0  0  0
   90.0306   51.3834  271.9921 H   0  0  0  0  0  0  0  0  0  0  0  0
   89.7472   53.1566  271.9456 H   0  0  0  0  0  0  0  0  0  0  0  0
   89.1710   52.0986  269.8017 H   0  0  0  0  0  0  0  0  0  0  0  0
   90.5567   53.2248  269.6070 H   0  0  0  0  0  0  0  0  0  0  0  0
   90.8400   51.4516  269.6535 H   0  0  0  0  0  0  0  0  0  0  0  0
  1  4  2  0  0  0  0
  1  6  1  0  0  0  0
  1 11  1  0  0  0  0
  2  3  1  0  0  0  0
  2  5  2  0  0  0  0
  3  4  1  0  0  0  0
  3 15  2  3  0  0  0
  5  6  1  0  0  0  0
  5 10  1  0  0  0  0
  6  7  1  0  0  0  0
  7  8  2  0  0  0  0
  8  9  1  0  0  0  0
  9 10  2  0  0  0  0
 11 12  2  0  0  0  0
 11 14  1  0  0  0  0
 12 13  1  0  0  0  0
 13 27  2  0  0  0  0
 14 26  2  0  0  0  0
 15 16  1  0  0  0  0
 16 17  2  0  0  0  0
 16 21  1  0  0  0  0
 17 18  1  0  0  0  0
 18 19  2  0  0  0  0
 19 20  1  0  0  0  0
 20 21  2  0  0  0  0
 21 22  1  0  0  0  0
 22 23  2  0  0  0  0
 22 24  2  0  0  0  0
 22 25  1  0  0  0  0
 26 27  1  0  0  0  0
 26 30  1  0  0  0  0
 27 28  1  0  0  0  0
 28 29  2  0  0  0  0
 29 30  1  0  0  0  0
 30 31  1  0  0  0  0
 31 32  1  0  0  0  0
 32 33  1  0  0  0  0
  2 34  1  0  0  0  0
  4 35  1  0  0  0  0
  6 36  1  0  0  0  0
  8 37  1  0  0  0  0
  9 38  1  0  0  0  0
 12 39  1  0  0  0  0
 13 40  1  0  0  0  0
 14 41  1  0  0  0  0
 17 42  1  0  0  0  0
 19 43  1  0  0  0  0
 20 44  1  0  0  0  0
 25 45  1  0  0  0  0
 25 46  1  0  0  0  0
 25 47  1  0  0  0  0
 28 48  1  0  0  0  0
 29 49  1  0  0  0  0
 31 50  1  0  0  0  0
 31 51  1  0  0  0  0
 32 52  1  0  0  0  0
 32 53  1  0  0  0  0
 33 54  1  0  0  0  0
 33 55  1  0  0  0  0
 33 56  1  0  0  0  0
M  END
> <ID>
53

> <IC50[uM]>
7.425

$$$$
53
  -OEChem-05192314313D
 Structure written by MMmdl.
 56 60  0     0  0  0  0  0  0999 V2000
   93.3094   49.8018  267.6715 C   0  0  0  0  0  0  0  0  0  0  0  0
   92.5663   47.3465  266.4764 C   0  0  0  0  0  0  0  0  0  0  0  0
   91.6141   48.3425  266.6765 C   0  0  0  0  0  0  0  0  0  0  0  0
   91.9847   49.5423  267.2840 C   0  0  0  0  0  0  0  0  0  0  0  0
   93.8976   47.5374  266.9026 C   0  0  0  0  0  0  0  0  0  0  0  0
   94.2817   48.7776  267.4988 C   0  0  0  0  0  0  0  0  0  0  0  0
   95.5685   48.9601  267.9272 N   0  0  0  0  0  0  0  0  0  0  0  0
   96.4515   47.9520  267.7392 C   0  0  0  0  0  0  0  0  0  0  0  0
   96.0722   46.7442  267.1750 C   0  0  0  0  0  0  0  0  0  0  0  0
   94.7966   46.5286  266.7520 N   0  0  0  0  0  0  0  0  0  0  0  0
   93.6558   51.0878  268.3201 C   0  0  0  0  0  0  0  0  0  0  0  0
   94.5958   51.9639  267.7545 C   0  0  0  0  0  0  0  0  0  0  0  0
   94.8801   53.1908  268.3506 C   0  0  0  0  0  0  0  0  0  0  0  0
   93.0752   51.3916  269.5378 C   0  0  0  0  0  0  0  0  0  0  0  0
   90.2756   48.1331  266.3189 N   0  0  0  0  0  0  0  0  0  0  0  0
   89.7176   47.3508  265.2916 C   0  0  0  0  0  0  0  0  0  0  0  0
   90.4208   47.1280  264.0996 C   0  0  0  0  0  0  0  0  0  0  0  0
   89.9177   46.4358  263.0468 N   0  0  0  0  0  0  0  0  0  0  0  0
   88.6627   45.9387  263.1665 C   0  0  0  0  0  0  0  0  0  0  0  0
   87.8896   46.0967  264.3155 C   0  0  0  0  0  0  0  0  0  0  0  0
   88.4252   46.8051  265.3987 C   0  0  0  0  0  0  0  0  0  0  0  0
   87.4830   46.8956  266.9271 S   0  0  0  0  0  0  0  0  0  0  0  0
   86.1384   46.3667  266.6674 O   0  0  0  0  0  0  0  0  0  0  0  0
   87.6481   48.2411  267.4789 O   0  0  0  0  0  0  0  0  0  0  0  0
   88.3835   45.6760  268.0451 C   0  0  0  0  0  0  0  0  0  0  0  0
   93.2883   52.6417  270.1079 C   0  0  0  0  0  0  0  0  0  0  0  0
   94.1853   53.5555  269.5070 C   0  0  0  0  0  0  0  0  0  0  0  0
   94.1740   54.7256  270.3504 C   0  0  0  0  0  0  0  0  0  0  0  0
   93.2801   54.4760  271.3702 C   0  0  0  0  0  0  0  0  0  0  0  0
   92.7561   53.2209  271.2520 N   0  0  0  0  0  0  0  0  0  0  0  0
   91.8097   52.5822  272.1667 C   0  0  0  0  0  0  0  0  0  0  0  0
   90.3901   52.3401  271.5852 C   0  0  0  0  0  0  0  0  0  0  0  0
   90.2277   52.2740  270.0518 C   0  0  0  0  0  0  0  0  0  0  0  0
   92.2843   46.4231  265.9925 H   0  0  0  0  0  0  0  0  0  0  0  0
   91.2302   50.2943  267.4617 H   0  0  0  0  0  0  0  0  0  0  0  0
   97.2489   48.3555  267.0979 H   0  0  0  0  0  0  0  0  0  0  0  0
   96.8638   47.7137  268.7308 H   0  0  0  0  0  0  0  0  0  0  0  0
   96.8044   45.9574  267.0687 H   0  0  0  0  0  0  0  0  0  0  0  0
   95.1056   51.6830  266.8448 H   0  0  0  0  0  0  0  0  0  0  0  0
   95.6244   53.8484  267.9264 H   0  0  0  0  0  0  0  0  0  0  0  0
   92.4598   50.6620  270.0431 H   0  0  0  0  0  0  0  0  0  0  0  0
   91.4195   47.5301  264.0145 H   0  0  0  0  0  0  0  0  0  0  0  0
   88.2422   45.3951  262.3333 H   0  0  0  0  0  0  0  0  0  0  0  0
   86.8947   45.6801  264.3697 H   0  0  0  0  0  0  0  0  0  0  0  0
   87.8892   45.6442  269.0273 H   0  0  0  0  0  0  0  0  0  0  0  0
   88.3593   44.6748  267.5900 H   0  0  0  0  0  0  0  0  0  0  0  0
   89.4283   45.9965  268.1708 H   0  0  0  0  0  0  0  0  0  0  0  0
   94.7547   55.6253  270.2100 H   0  0  0  0  0  0  0  0  0  0  0  0
   93.0294   55.1760  272.1535 H   0  0  0  0  0  0  0  0  0  0  0  0
   92.2269   51.6084  272.4629 H   0  0  0  0  0  0  0  0  0  0  0  0
   91.7090   53.2234  273.0548 H   0  0  0  0  0  0  0  0  0  0  0  0
   90.0306   51.3834  271.9921 H   0  0  0  0  0  0  0  0  0  0  0  0
   89.7472   53.1566  271.9456 H   0  0  0  0  0  0  0  0  0  0  0  0
   89.1710   52.0986  269.8017 H   0  0  0  0  0  0  0  0  0  0  0  0
   90.5567   53.2248  269.6070 H   0  0  0  0  0  0  0  0  0  0  0  0
   90.8400   51.4516  269.6535 H   0  0  0  0  0  0  0  0  0  0  0  0
  1  4  2  0  0  0  0
  1  6  1  0  0  0  0
  1 11  1  0  0  0  0
  2  3  1  0  0  0  0
  2  5  2  0  0  0  0
  3  4  1  0  0  0  0
  3 15  2  3  0  0  0
  5  6  1  0  0  0  0
  5 10  1  0  0  0  0
  6  7  2  0  0  0  0
  7  8  1  0  0  0  0
  8  9  1  0  0  0  0
  9 10  2  0  0  0  0
 11 12  2  0  0  0  0
 11 14  1  0  0  0  0
 12 13  1  0  0  0  0
 13 27  2  0  0  0  0
 14 26  2  0  0  0  0
 15 16  1  0  0  0  0
 16 17  2  0  0  0  0
 16 21  1  0  0  0  0
 17 18  1  0  0  0  0
 18 19  2  0  0  0  0
 19 20  1  0  0  0  0
 20 21  2  0  0  0  0
 21 22  1  0  0  0  0
 22 23  2  0  0  0  0
 22 24  2  0  0  0  0
 22 25  1  0  0  0  0
 26 27  1  0  0  0  0
 26 30  1  0  0  0  0
 27 28  1  0  0  0  0
 28 29  2  0  0  0  0
 29 30  1  0  0  0  0
 30 31  1  0  0  0  0
 31 32  1  0  0  0  0
 32 33  1  0  0  0  0
  2 34  1  0  0  0  0
  4 35  1  0  0  0  0
  8 36  1  0  0  0  0
  8 37  1  0  0  0  0
  9 38  1  0  0  0  0
 12 39  1  0  0  0  0
 13 40  1  0  0  0  0
 14 41  1  0  0  0  0
 17 42  1  0  0  0  0
 19 43  1  0  0  0  0
 20 44  1  0  0  0  0
 25 45  1  0  0  0  0
 25 46  1  0  0  0  0
 25 47  1  0  0  0  0
 28 48  1  0  0  0  0
 29 49  1  0  0  0  0
 31 50  1  0  0  0  0
 31 51  1  0  0  0  0
 32 52  1  0  0  0  0
 32 53  1  0  0  0  0
 33 54  1  0  0  0  0
 33 55  1  0  0  0  0
 33 56  1  0  0  0  0
M  END
> <ID>
53

> <IC50[uM]>
7.425

$$$$
