19
  -OEChem-05192314313D
 Structure written by MMmdl.
 45 49  0     0  0  0  0  0  0999 V2000
   91.5919   48.3113  266.7137 C   0  0  0  0  0  0  0  0  0  0  0  0
   91.9737   49.5382  267.2740 C   0  0  0  0  0  0  0  0  0  0  0  0
   93.2784   49.7908  267.6730 C   0  0  0  0  0  0  0  0  0  0  0  0
   94.2680   48.7772  267.5133 C   0  0  0  0  0  0  0  0  0  0  0  0
   93.8795   47.5270  266.9201 C   0  0  0  0  0  0  0  0  0  0  0  0
   92.5376   47.3212  266.5200 C   0  0  0  0  0  0  0  0  0  0  0  0
   93.5872   51.0945  268.3284 C   0  0  0  0  0  0  0  0  0  0  0  0
   92.9105   51.4581  269.4749 C   0  0  0  0  0  0  0  0  0  0  0  0
   93.2075   52.6695  270.0688 C   0  0  0  0  0  0  0  0  0  0  0  0
   94.1599   53.5455  269.4884 C   0  0  0  0  0  0  0  0  0  0  0  0
   94.8806   53.1831  268.3564 C   0  0  0  0  0  0  0  0  0  0  0  0
   94.5635   51.9339  267.7910 C   0  0  0  0  0  0  0  0  0  0  0  0
   94.7950   46.5293  266.7603 N   0  0  0  0  0  0  0  0  0  0  0  0
   96.0527   46.7456  267.1808 C   0  0  0  0  0  0  0  0  0  0  0  0
   96.4462   47.9586  267.7463 C   0  0  0  0  0  0  0  0  0  0  0  0
   95.5547   48.9614  267.9316 N   0  0  0  0  0  0  0  0  0  0  0  0
   90.2589   48.1474  266.3192 N   0  0  0  0  0  0  0  0  0  0  0  0
   94.1772   54.7621  270.3164 C   0  0  0  0  0  0  0  0  0  0  0  0
   93.3120   54.5077  271.3434 C   0  0  0  0  0  0  0  0  0  0  0  0
   92.7370   53.2548  271.2326 N   0  0  0  0  0  0  0  0  0  0  0  0
   91.8268   52.6667  272.1752 C   0  0  0  0  0  0  0  0  0  0  0  0
   89.6772   47.3563  265.3181 C   0  0  0  0  0  0  0  0  0  0  0  0
   90.3332   47.0353  264.1264 C   0  0  0  0  0  0  0  0  0  0  0  0
   89.7129   46.1911  263.1996 C   0  0  0  0  0  0  0  0  0  0  0  0
   88.4539   45.6752  263.4709 C   0  0  0  0  0  0  0  0  0  0  0  0
   87.7916   45.9887  264.6598 C   0  0  0  0  0  0  0  0  0  0  0  0
   88.4119   46.8267  265.5812 C   0  0  0  0  0  0  0  0  0  0  0  0
   91.2294   50.3107  267.3989 H   0  0  0  0  0  0  0  0  0  0  0  0
   92.2509   46.3865  266.0612 H   0  0  0  0  0  0  0  0  0  0  0  0
   92.1616   50.8067  269.9006 H   0  0  0  0  0  0  0  0  0  0  0  0
   95.6408   53.8238  267.9347 H   0  0  0  0  0  0  0  0  0  0  0  0
   95.0959   51.6130  266.9079 H   0  0  0  0  0  0  0  0  0  0  0  0
   96.7818   45.9556  267.0777 H   0  0  0  0  0  0  0  0  0  0  0  0
   97.4757   48.1001  268.0404 H   0  0  0  0  0  0  0  0  0  0  0  0
   89.6049   48.6914  266.8449 H   0  0  0  0  0  0  0  0  0  0  0  0
   94.7502   55.6621  270.1486 H   0  0  0  0  0  0  0  0  0  0  0  0
   93.1027   55.2011  272.1445 H   0  0  0  0  0  0  0  0  0  0  0  0
   91.6412   53.3741  272.9969 H   0  0  0  0  0  0  0  0  0  0  0  0
   90.8774   52.4331  271.6712 H   0  0  0  0  0  0  0  0  0  0  0  0
   92.2645   51.7421  272.5795 H   0  0  0  0  0  0  0  0  0  0  0  0
   91.3146   47.4373  263.9221 H   0  0  0  0  0  0  0  0  0  0  0  0
   90.2127   45.9415  262.2753 H   0  0  0  0  0  0  0  0  0  0  0  0
   87.9796   45.0224  262.7530 H   0  0  0  0  0  0  0  0  0  0  0  0
   86.8101   45.5857  264.8615 H   0  0  0  0  0  0  0  0  0  0  0  0
   87.9112   47.0694  266.5068 H   0  0  0  0  0  0  0  0  0  0  0  0
  1  2  2  0  0  0  0
  1  6  1  0  0  0  0
  1 17  1  0  0  0  0
  2  3  1  0  0  0  0
  3  4  2  0  0  0  0
  3  7  1  0  0  0  0
  4  5  1  0  0  0  0
  4 16  1  0  0  0  0
  5  6  2  0  0  0  0
  5 13  1  0  0  0  0
  7  8  2  0  0  0  0
  7 12  1  0  0  0  0
  8  9  1  0  0  0  0
  9 10  2  0  0  0  0
  9 20  1  0  0  0  0
 10 11  1  0  0  0  0
 10 18  1  0  0  0  0
 11 12  2  0  0  0  0
 13 14  2  0  0  0  0
 14 15  1  0  0  0  0
 15 16  2  0  0  0  0
 17 22  1  0  0  0  0
 18 19  2  0  0  0  0
 19 20  1  0  0  0  0
 20 21  1  0  0  0  0
 22 23  2  0  0  0  0
 22 27  1  0  0  0  0
 23 24  1  0  0  0  0
 24 25  2  0  0  0  0
 25 26  1  0  0  0  0
 26 27  2  0  0  0  0
  2 28  1  0  0  0  0
  6 29  1  0  0  0  0
  8 30  1  0  0  0  0
 11 31  1  0  0  0  0
 12 32  1  0  0  0  0
 14 33  1  0  0  0  0
 15 34  1  0  0  0  0
 17 35  1  0  0  0  0
 18 36  1  0  0  0  0
 19 37  1  0  0  0  0
 21 38  1  0  0  0  0
 21 39  1  0  0  0  0
 21 40  1  0  0  0  0
 23 41  1  0  0  0  0
 24 42  1  0  0  0  0
 25 43  1  0  0  0  0
 26 44  1  0  0  0  0
 27 45  1  0  0  0  0
M  END
> <ID>
19

> <IC50[uM]>
2.919

$$$$
19
  -OEChem-05192314313D
 Structure written by MMmdl.
 45 49  0     0  0  0  0  0  0999 V2000
   91.5919   48.3113  266.7137 C   0  0  0  0  0  0  0  0  0  0  0  0
   91.9737   49.5382  267.2740 C   0  0  0  0  0  0  0  0  0  0  0  0
   93.2784   49.7908  267.6730 C   0  0  0  0  0  0  0  0  0  0  0  0
   94.2680   48.7772  267.5133 C   0  0  0  0  0  0  0  0  0  0  0  0
   93.8795   47.5270  266.9201 C   0  0  0  0  0  0  0  0  0  0  0  0
   92.5376   47.3212  266.5200 C   0  0  0  0  0  0  0  0  0  0  0  0
   93.5872   51.0945  268.3284 C   0  0  0  0  0  0  0  0  0  0  0  0
   92.9105   51.4581  269.4749 C   0  0  0  0  0  0  0  0  0  0  0  0
   93.2075   52.6695  270.0688 C   0  0  0  0  0  0  0  0  0  0  0  0
   94.1599   53.5455  269.4884 C   0  0  0  0  0  0  0  0  0  0  0  0
   94.8806   53.1831  268.3564 C   0  0  0  0  0  0  0  0  0  0  0  0
   94.5635   51.9339  267.7910 C   0  0  0  0  0  0  0  0  0  0  0  0
   94.7950   46.5293  266.7603 N   0  0  0  0  0  0  0  0  0  0  0  0
   96.0527   46.7456  267.1808 C   0  0  0  0  0  0  0  0  0  0  0  0
   96.4462   47.9586  267.7463 C   0  0  0  0  0  0  0  0  0  0  0  0
   95.5547   48.9614  267.9316 N   0  0  0  0  0  0  0  0  0  0  0  0
   90.2589   48.1474  266.3192 N   0  0  0  0  0  0  0  0  0  0  0  0
   94.1772   54.7621  270.3164 C   0  0  0  0  0  0  0  0  0  0  0  0
   93.3120   54.5077  271.3434 C   0  0  0  0  0  0  0  0  0  0  0  0
   92.7370   53.2548  271.2326 N   0  0  0  0  0  0  0  0  0  0  0  0
   91.8268   52.6667  272.1752 C   0  0  0  0  0  0  0  0  0  0  0  0
   89.6772   47.3563  265.3181 C   0  0  0  0  0  0  0  0  0  0  0  0
   90.3332   47.0353  264.1264 C   0  0  0  0  0  0  0  0  0  0  0  0
   89.7129   46.1911  263.1996 C   0  0  0  0  0  0  0  0  0  0  0  0
   88.4539   45.6752  263.4709 C   0  0  0  0  0  0  0  0  0  0  0  0
   87.7916   45.9887  264.6598 C   0  0  0  0  0  0  0  0  0  0  0  0
   88.4119   46.8267  265.5812 C   0  0  0  0  0  0  0  0  0  0  0  0
   91.2294   50.3107  267.3989 H   0  0  0  0  0  0  0  0  0  0  0  0
   92.2509   46.3865  266.0612 H   0  0  0  0  0  0  0  0  0  0  0  0
   92.1616   50.8067  269.9006 H   0  0  0  0  0  0  0  0  0  0  0  0
   95.6408   53.8238  267.9347 H   0  0  0  0  0  0  0  0  0  0  0  0
   95.0959   51.6130  266.9079 H   0  0  0  0  0  0  0  0  0  0  0  0
   94.5370   45.6589  266.3409 H   0  0  0  0  0  0  0  0  0  0  0  0
   96.7818   45.9556  267.0777 H   0  0  0  0  0  0  0  0  0  0  0  0
   97.4757   48.1001  268.0404 H   0  0  0  0  0  0  0  0  0  0  0  0
   94.7502   55.6621  270.1486 H   0  0  0  0  0  0  0  0  0  0  0  0
   93.1027   55.2011  272.1445 H   0  0  0  0  0  0  0  0  0  0  0  0
   91.6412   53.3741  272.9969 H   0  0  0  0  0  0  0  0  0  0  0  0
   90.8774   52.4331  271.6712 H   0  0  0  0  0  0  0  0  0  0  0  0
   92.2645   51.7421  272.5795 H   0  0  0  0  0  0  0  0  0  0  0  0
   91.3146   47.4373  263.9221 H   0  0  0  0  0  0  0  0  0  0  0  0
   90.2127   45.9415  262.2753 H   0  0  0  0  0  0  0  0  0  0  0  0
   87.9796   45.0224  262.7530 H   0  0  0  0  0  0  0  0  0  0  0  0
   86.8101   45.5857  264.8615 H   0  0  0  0  0  0  0  0  0  0  0  0
   87.9112   47.0694  266.5068 H   0  0  0  0  0  0  0  0  0  0  0  0
  1  2  1  0  0  0  0
  1  6  1  0  0  0  0
  1 17  2  0  0  0  0
  2  3  2  0  0  0  0
  3  4  1  0  0  0  0
  3  7  1  0  0  0  0
  4  5  1  0  0  0  0
  4 16  2  0  0  0  0
  5  6  2  0  0  0  0
  5 13  1  0  0  0  0
  7  8  2  0  0  0  0
  7 12  1  0  0  0  0
  8  9  1  0  0  0  0
  9 10  2  0  0  0  0
  9 20  1  0  0  0  0
 10 11  1  0  0  0  0
 10 18  1  0  0  0  0
 11 12  2  0  0  0  0
 13 14  1  0  0  0  0
 14 15  2  0  0  0  0
 15 16  1  0  0  0  0
 17 22  1  0  0  0  0
 18 19  2  0  0  0  0
 19 20  1  0  0  0  0
 20 21  1  0  0  0  0
 22 23  2  0  0  0  0
 22 27  1  0  0  0  0
 23 24  1  0  0  0  0
 24 25  2  0  0  0  0
 25 26  1  0  0  0  0
 26 27  2  0  0  0  0
  2 28  1  0  0  0  0
  6 29  1  0  0  0  0
  8 30  1  0  0  0  0
 11 31  1  0  0  0  0
 12 32  1  0  0  0  0
 13 33  1  0  0  0  0
 14 34  1  0  0  0  0
 15 35  1  0  0  0  0
 18 36  1  0  0  0  0
 19 37  1  0  0  0  0
 21 38  1  0  0  0  0
 21 39  1  0  0  0  0
 21 40  1  0  0  0  0
 23 41  1  0  0  0  0
 24 42  1  0  0  0  0
 25 43  1  0  0  0  0
 26 44  1  0  0  0  0
 27 45  1  0  0  0  0
M  END
> <ID>
19

> <IC50[uM]>
2.919

$$$$
19
  -OEChem-05192314313D
 Structure written by MMmdl.
 45 49  0     0  0  0  0  0  0999 V2000
   91.5919   48.3113  266.7137 C   0  0  0  0  0  0  0  0  0  0  0  0
   91.9737   49.5382  267.2740 C   0  0  0  0  0  0  0  0  0  0  0  0
   93.2784   49.7908  267.6730 C   0  0  0  0  0  0  0  0  0  0  0  0
   94.2680   48.7772  267.5133 C   0  0  0  0  0  0  0  0  0  0  0  0
   93.8795   47.5270  266.9201 C   0  0  0  0  0  0  0  0  0  0  0  0
   92.5376   47.3212  266.5200 C   0  0  0  0  0  0  0  0  0  0  0  0
   93.5872   51.0945  268.3284 C   0  0  0  0  0  0  0  0  0  0  0  0
   92.9105   51.4581  269.4749 C   0  0  0  0  0  0  0  0  0  0  0  0
   93.2075   52.6695  270.0688 C   0  0  0  0  0  0  0  0  0  0  0  0
   94.1599   53.5455  269.4884 C   0  0  0  0  0  0  0  0  0  0  0  0
   94.8806   53.1831  268.3564 C   0  0  0  0  0  0  0  0  0  0  0  0
   94.5635   51.9339  267.7910 C   0  0  0  0  0  0  0  0  0  0  0  0
   94.7950   46.5293  266.7603 N   0  0  0  0  0  0  0  0  0  0  0  0
   96.0527   46.7456  267.1808 C   0  0  0  0  0  0  0  0  0  0  0  0
   96.4462   47.9586  267.7463 C   0  0  0  0  0  0  0  0  0  0  0  0
   95.5547   48.9614  267.9316 N   0  0  0  0  0  0  0  0  0  0  0  0
   90.2589   48.1474  266.3192 N   0  0  0  0  0  0  0  0  0  0  0  0
   94.1772   54.7621  270.3164 C   0  0  0  0  0  0  0  0  0  0  0  0
   93.3120   54.5077  271.3434 C   0  0  0  0  0  0  0  0  0  0  0  0
   92.7370   53.2548  271.2326 N   0  0  0  0  0  0  0  0  0  0  0  0
   91.8268   52.6667  272.1752 C   0  0  0  0  0  0  0  0  0  0  0  0
   89.6772   47.3563  265.3181 C   0  0  0  0  0  0  0  0  0  0  0  0
   90.3332   47.0353  264.1264 C   0  0  0  0  0  0  0  0  0  0  0  0
   89.7129   46.1911  263.1996 C   0  0  0  0  0  0  0  0  0  0  0  0
   88.4539   45.6752  263.4709 C   0  0  0  0  0  0  0  0  0  0  0  0
   87.7916   45.9887  264.6598 C   0  0  0  0  0  0  0  0  0  0  0  0
   88.4119   46.8267  265.5812 C   0  0  0  0  0  0  0  0  0  0  0  0
   91.2294   50.3107  267.3989 H   0  0  0  0  0  0  0  0  0  0  0  0
   92.1796   46.4322  267.0599 H   0  0  0  0  0  0  0  0  0  0  0  0
   92.5584   47.1109  265.4405 H   0  0  0  0  0  0  0  0  0  0  0  0
   92.1616   50.8067  269.9006 H   0  0  0  0  0  0  0  0  0  0  0  0
   95.6408   53.8238  267.9347 H   0  0  0  0  0  0  0  0  0  0  0  0
   95.0959   51.6130  266.9079 H   0  0  0  0  0  0  0  0  0  0  0  0
   96.7818   45.9556  267.0777 H   0  0  0  0  0  0  0  0  0  0  0  0
   97.4757   48.1001  268.0404 H   0  0  0  0  0  0  0  0  0  0  0  0
   94.7502   55.6621  270.1486 H   0  0  0  0  0  0  0  0  0  0  0  0
   93.1027   55.2011  272.1445 H   0  0  0  0  0  0  0  0  0  0  0  0
   91.6412   53.3741  272.9969 H   0  0  0  0  0  0  0  0  0  0  0  0
   90.8774   52.4331  271.6712 H   0  0  0  0  0  0  0  0  0  0  0  0
   92.2645   51.7421  272.5795 H   0  0  0  0  0  0  0  0  0  0  0  0
   91.3146   47.4373  263.9221 H   0  0  0  0  0  0  0  0  0  0  0  0
   90.2127   45.9415  262.2753 H   0  0  0  0  0  0  0  0  0  0  0  0
   87.9796   45.0224  262.7530 H   0  0  0  0  0  0  0  0  0  0  0  0
   86.8101   45.5857  264.8615 H   0  0  0  0  0  0  0  0  0  0  0  0
   87.9112   47.0694  266.5068 H   0  0  0  0  0  0  0  0  0  0  0  0
  1  2  1  0  0  0  0
  1  6  1  0  0  0  0
  1 17  2  0  0  0  0
  2  3  2  0  0  0  0
  3  4  1  0  0  0  0
  3  7  1  0  0  0  0
  4  5  2  0  0  0  0
  4 16  1  0  0  0  0
  5  6  1  0  0  0  0
  5 13  1  0  0  0  0
  7  8  2  0  0  0  0
  7 12  1  0  0  0  0
  8  9  1  0  0  0  0
  9 10  2  0  0  0  0
  9 20  1  0  0  0  0
 10 11  1  0  0  0  0
 10 18  1  0  0  0  0
 11 12  2  0  0  0  0
 13 14  2  0  0  0  0
 14 15  1  0  0  0  0
 15 16  2  0  0  0  0
 17 22  1  0  0  0  0
 18 19  2  0  0  0  0
 19 20  1  0  0  0  0
 20 21  1  0  0  0  0
 22 23  2  0  0  0  0
 22 27  1  0  0  0  0
 23 24  1  0  0  0  0
 24 25  2  0  0  0  0
 25 26  1  0  0  0  0
 26 27  2  0  0  0  0
  2 28  1  0  0  0  0
  6 29  1  0  0  0  0
  6 30  1  0  0  0  0
  8 31  1  0  0  0  0
 11 32  1  0  0  0  0
 12 33  1  0  0  0  0
 14 34  1  0  0  0  0
 15 35  1  0  0  0  0
 18 36  1  0  0  0  0
 19 37  1  0  0  0  0
 21 38  1  0  0  0  0
 21 39  1  0  0  0  0
 21 40  1  0  0  0  0
 23 41  1  0  0  0  0
 24 42  1  0  0  0  0
 25 43  1  0  0  0  0
 26 44  1  0  0  0  0
 27 45  1  0  0  0  0
M  END
> <ID>
19

> <IC50[uM]>
2.919

$$$$
19
  -OEChem-05192314313D
 Structure written by MMmdl.
 45 49  0     0  0  0  0  0  0999 V2000
   91.5919   48.3113  266.7137 C   0  0  0  0  0  0  0  0  0  0  0  0
   91.9737   49.5382  267.2740 C   0  0  0  0  0  0  0  0  0  0  0  0
   93.2784   49.7908  267.6730 C   0  0  0  0  0  0  0  0  0  0  0  0
   94.2680   48.7772  267.5133 C   0  0  0  0  0  0  0  0  0  0  0  0
   93.8795   47.5270  266.9201 C   0  0  0  0  0  0  0  0  0  0  0  0
   92.5376   47.3212  266.5200 C   0  0  0  0  0  0  0  0  0  0  0  0
   93.5872   51.0945  268.3284 C   0  0  0  0  0  0  0  0  0  0  0  0
   92.9105   51.4581  269.4749 C   0  0  0  0  0  0  0  0  0  0  0  0
   93.2075   52.6695  270.0688 C   0  0  0  0  0  0  0  0  0  0  0  0
   94.1599   53.5455  269.4884 C   0  0  0  0  0  0  0  0  0  0  0  0
   94.8806   53.1831  268.3564 C   0  0  0  0  0  0  0  0  0  0  0  0
   94.5635   51.9339  267.7910 C   0  0  0  0  0  0  0  0  0  0  0  0
   94.7950   46.5293  266.7603 N   0  0  0  0  0  0  0  0  0  0  0  0
   96.0527   46.7456  267.1808 C   0  0  0  0  0  0  0  0  0  0  0  0
   96.4462   47.9586  267.7463 C   0  0  0  0  0  0  0  0  0  0  0  0
   95.5547   48.9614  267.9316 N   0  0  0  0  0  0  0  0  0  0  0  0
   90.2589   48.1474  266.3192 N   0  0  0  0  0  0  0  0  0  0  0  0
   94.1772   54.7621  270.3164 C   0  0  0  0  0  0  0  0  0  0  0  0
   93.3120   54.5077  271.3434 C   0  0  0  0  0  0  0  0  0  0  0  0
   92.7370   53.2548  271.2326 N   0  0  0  0  0  0  0  0  0  0  0  0
   91.8268   52.6667  272.1752 C   0  0  0  0  0  0  0  0  0  0  0  0
   89.6772   47.3563  265.3181 C   0  0  0  0  0  0  0  0  0  0  0  0
   90.3332   47.0353  264.1264 C   0  0  0  0  0  0  0  0  0  0  0  0
   89.7129   46.1911  263.1996 C   0  0  0  0  0  0  0  0  0  0  0  0
   88.4539   45.6752  263.4709 C   0  0  0  0  0  0  0  0  0  0  0  0
   87.7916   45.9887  264.6598 C   0  0  0  0  0  0  0  0  0  0  0  0
   88.4119   46.8267  265.5812 C   0  0  0  0  0  0  0  0  0  0  0  0
   91.7256   50.3076  266.5281 H   0  0  0  0  0  0  0  0  0  0  0  0
   91.3464   49.6773  268.1668 H   0  0  0  0  0  0  0  0  0  0  0  0
   92.2509   46.3865  266.0612 H   0  0  0  0  0  0  0  0  0  0  0  0
   92.1616   50.8067  269.9006 H   0  0  0  0  0  0  0  0  0  0  0  0
   95.6408   53.8238  267.9347 H   0  0  0  0  0  0  0  0  0  0  0  0
   95.0959   51.6130  266.9079 H   0  0  0  0  0  0  0  0  0  0  0  0
   96.7818   45.9556  267.0777 H   0  0  0  0  0  0  0  0  0  0  0  0
   97.4757   48.1001  268.0404 H   0  0  0  0  0  0  0  0  0  0  0  0
   94.7502   55.6621  270.1486 H   0  0  0  0  0  0  0  0  0  0  0  0
   93.1027   55.2011  272.1445 H   0  0  0  0  0  0  0  0  0  0  0  0
   91.6412   53.3741  272.9969 H   0  0  0  0  0  0  0  0  0  0  0  0
   90.8774   52.4331  271.6712 H   0  0  0  0  0  0  0  0  0  0  0  0
   92.2645   51.7421  272.5795 H   0  0  0  0  0  0  0  0  0  0  0  0
   91.3146   47.4373  263.9221 H   0  0  0  0  0  0  0  0  0  0  0  0
   90.2127   45.9415  262.2753 H   0  0  0  0  0  0  0  0  0  0  0  0
   87.9796   45.0224  262.7530 H   0  0  0  0  0  0  0  0  0  0  0  0
   86.8101   45.5857  264.8615 H   0  0  0  0  0  0  0  0  0  0  0  0
   87.9112   47.0694  266.5068 H   0  0  0  0  0  0  0  0  0  0  0  0
  1  2  1  0  0  0  0
  1  6  1  0  0  0  0
  1 17  2  0  0  0  0
  2  3  1  0  0  0  0
  3  4  2  0  0  0  0
  3  7  1  0  0  0  0
  4  5  1  0  0  0  0
  4 16  1  0  0  0  0
  5  6  2  0  0  0  0
  5 13  1  0  0  0  0
  7  8  2  0  0  0  0
  7 12  1  0  0  0  0
  8  9  1  0  0  0  0
  9 10  2  0  0  0  0
  9 20  1  0  0  0  0
 10 11  1  0  0  0  0
 10 18  1  0  0  0  0
 11 12  2  0  0  0  0
 13 14  2  0  0  0  0
 14 15  1  0  0  0  0
 15 16  2  0  0  0  0
 17 22  1  0  0  0  0
 18 19  2  0  0  0  0
 19 20  1  0  0  0  0
 20 21  1  0  0  0  0
 22 23  2  0  0  0  0
 22 27  1  0  0  0  0
 23 24  1  0  0  0  0
 24 25  2  0  0  0  0
 25 26  1  0  0  0  0
 26 27  2  0  0  0  0
  2 28  1  0  0  0  0
  2 29  1  0  0  0  0
  6 30  1  0  0  0  0
  8 31  1  0  0  0  0
 11 32  1  0  0  0  0
 12 33  1  0  0  0  0
 14 34  1  0  0  0  0
 15 35  1  0  0  0  0
 18 36  1  0  0  0  0
 19 37  1  0  0  0  0
 21 38  1  0  0  0  0
 21 39  1  0  0  0  0
 21 40  1  0  0  0  0
 23 41  1  0  0  0  0
 24 42  1  0  0  0  0
 25 43  1  0  0  0  0
 26 44  1  0  0  0  0
 27 45  1  0  0  0  0
M  END
> <ID>
19

> <IC50[uM]>
2.919

$$$$
19
  -OEChem-05192314313D
 Structure written by MMmdl.
 45 49  0     0  0  0  0  0  0999 V2000
   91.5919   48.3113  266.7137 C   0  0  0  0  0  0  0  0  0  0  0  0
   91.9737   49.5382  267.2740 C   0  0  0  0  0  0  0  0  0  0  0  0
   93.2784   49.7908  267.6730 C   0  0  0  0  0  0  0  0  0  0  0  0
   94.2680   48.7772  267.5133 C   0  0  0  0  0  0  0  0  0  0  0  0
   93.8795   47.5270  266.9201 C   0  0  0  0  0  0  0  0  0  0  0  0
   92.5376   47.3212  266.5200 C   0  0  0  0  0  0  0  0  0  0  0  0
   93.5872   51.0945  268.3284 C   0  0  0  0  0  0  0  0  0  0  0  0
   92.9105   51.4581  269.4749 C   0  0  0  0  0  0  0  0  0  0  0  0
   93.2075   52.6695  270.0688 C   0  0  0  0  0  0  0  0  0  0  0  0
   94.1599   53.5455  269.4884 C   0  0  0  0  0  0  0  0  0  0  0  0
   94.8806   53.1831  268.3564 C   0  0  0  0  0  0  0  0  0  0  0  0
   94.5635   51.9339  267.7910 C   0  0  0  0  0  0  0  0  0  0  0  0
   94.7950   46.5293  266.7603 N   0  0  0  0  0  0  0  0  0  0  0  0
   96.0527   46.7456  267.1808 C   0  0  0  0  0  0  0  0  0  0  0  0
   96.4462   47.9586  267.7463 C   0  0  0  0  0  0  0  0  0  0  0  0
   95.5547   48.9614  267.9316 N   0  0  0  0  0  0  0  0  0  0  0  0
   90.2589   48.1474  266.3192 N   0  0  0  0  0  0  0  0  0  0  0  0
   94.1772   54.7621  270.3164 C   0  0  0  0  0  0  0  0  0  0  0  0
   93.3120   54.5077  271.3434 C   0  0  0  0  0  0  0  0  0  0  0  0
   92.7370   53.2548  271.2326 N   0  0  0  0  0  0  0  0  0  0  0  0
   91.8268   52.6667  272.1752 C   0  0  0  0  0  0  0  0  0  0  0  0
   89.6772   47.3563  265.3181 C   0  0  0  0  0  0  0  0  0  0  0  0
   90.3332   47.0353  264.1264 C   0  0  0  0  0  0  0  0  0  0  0  0
   89.7129   46.1911  263.1996 C   0  0  0  0  0  0  0  0  0  0  0  0
   88.4539   45.6752  263.4709 C   0  0  0  0  0  0  0  0  0  0  0  0
   87.7916   45.9887  264.6598 C   0  0  0  0  0  0  0  0  0  0  0  0
   88.4119   46.8267  265.5812 C   0  0  0  0  0  0  0  0  0  0  0  0
   91.2294   50.3107  267.3989 H   0  0  0  0  0  0  0  0  0  0  0  0
   92.2509   46.3865  266.0612 H   0  0  0  0  0  0  0  0  0  0  0  0
   92.1616   50.8067  269.9006 H   0  0  0  0  0  0  0  0  0  0  0  0
   95.6408   53.8238  267.9347 H   0  0  0  0  0  0  0  0  0  0  0  0
   95.0959   51.6130  266.9079 H   0  0  0  0  0  0  0  0  0  0  0  0
   96.7818   45.9556  267.0777 H   0  0  0  0  0  0  0  0  0  0  0  0
   97.4757   48.1001  268.0404 H   0  0  0  0  0  0  0  0  0  0  0  0
   94.7502   55.6621  270.1486 H   0  0  0  0  0  0  0  0  0  0  0  0
   93.1027   55.2011  272.1445 H   0  0  0  0  0  0  0  0  0  0  0  0
   91.6412   53.3741  272.9969 H   0  0  0  0  0  0  0  0  0  0  0  0
   90.8774   52.4331  271.6712 H   0  0  0  0  0  0  0  0  0  0  0  0
   92.2645   51.7421  272.5795 H   0  0  0  0  0  0  0  0  0  0  0  0
   91.3146   47.4373  263.9221 H   0  0  0  0  0  0  0  0  0  0  0  0
   90.2127   45.9415  262.2753 H   0  0  0  0  0  0  0  0  0  0  0  0
   87.7978   46.0028  262.6510 H   0  0  0  0  0  0  0  0  0  0  0  0
   88.5523   44.5799  263.4465 H   0  0  0  0  0  0  0  0  0  0  0  0
   86.8101   45.5857  264.8615 H   0  0  0  0  0  0  0  0  0  0  0  0
   87.9112   47.0694  266.5068 H   0  0  0  0  0  0  0  0  0  0  0  0
  1  2  2  0  0  0  0
  1  6  1  0  0  0  0
  1 17  1  0  0  0  0
  2  3  1  0  0  0  0
  3  4  2  0  0  0  0
  3  7  1  0  0  0  0
  4  5  1  0  0  0  0
  4 16  1  0  0  0  0
  5  6  2  0  0  0  0
  5 13  1  0  0  0  0
  7  8  2  0  0  0  0
  7 12  1  0  0  0  0
  8  9  1  0  0  0  0
  9 10  2  0  0  0  0
  9 20  1  0  0  0  0
 10 11  1  0  0  0  0
 10 18  1  0  0  0  0
 11 12  2  0  0  0  0
 13 14  2  0  0  0  0
 14 15  1  0  0  0  0
 15 16  2  0  0  0  0
 17 22  2  0  0  0  0
 18 19  2  0  0  0  0
 19 20  1  0  0  0  0
 20 21  1  0  0  0  0
 22 23  1  0  0  0  0
 22 27  1  0  0  0  0
 23 24  2  0  0  0  0
 24 25  1  0  0  0  0
 25 26  1  0  0  0  0
 26 27  2  0  0  0  0
  2 28  1  0  0  0  0
  6 29  1  0  0  0  0
  8 30  1  0  0  0  0
 11 31  1  0  0  0  0
 12 32  1  0  0  0  0
 14 33  1  0  0  0  0
 15 34  1  0  0  0  0
 18 35  1  0  0  0  0
 19 36  1  0  0  0  0
 21 37  1  0  0  0  0
 21 38  1  0  0  0  0
 21 39  1  0  0  0  0
 23 40  1  0  0  0  0
 24 41  1  0  0  0  0
 25 42  1  0  0  0  0
 25 43  1  0  0  0  0
 26 44  1  0  0  0  0
 27 45  1  0  0  0  0
M  END
> <ID>
19

> <IC50[uM]>
2.919

$$$$
19
  -OEChem-05192314313D
 Structure written by MMmdl.
 45 49  0     0  0  0  0  0  0999 V2000
   91.5919   48.3113  266.7137 C   0  0  0  0  0  0  0  0  0  0  0  0
   91.9737   49.5382  267.2740 C   0  0  0  0  0  0  0  0  0  0  0  0
   93.2784   49.7908  267.6730 C   0  0  0  0  0  0  0  0  0  0  0  0
   94.2680   48.7772  267.5133 C   0  0  0  0  0  0  0  0  0  0  0  0
   93.8795   47.5270  266.9201 C   0  0  0  0  0  0  0  0  0  0  0  0
   92.5376   47.3212  266.5200 C   0  0  0  0  0  0  0  0  0  0  0  0
   93.5872   51.0945  268.3284 C   0  0  0  0  0  0  0  0  0  0  0  0
   92.9105   51.4581  269.4749 C   0  0  0  0  0  0  0  0  0  0  0  0
   93.2075   52.6695  270.0688 C   0  0  0  0  0  0  0  0  0  0  0  0
   94.1599   53.5455  269.4884 C   0  0  0  0  0  0  0  0  0  0  0  0
   94.8806   53.1831  268.3564 C   0  0  0  0  0  0  0  0  0  0  0  0
   94.5635   51.9339  267.7910 C   0  0  0  0  0  0  0  0  0  0  0  0
   94.7950   46.5293  266.7603 N   0  0  0  0  0  0  0  0  0  0  0  0
   96.0527   46.7456  267.1808 C   0  0  0  0  0  0  0  0  0  0  0  0
   96.4462   47.9586  267.7463 C   0  0  0  0  0  0  0  0  0  0  0  0
   95.5547   48.9614  267.9316 N   0  0  0  0  0  0  0  0  0  0  0  0
   90.2589   48.1474  266.3192 N   0  0  0  0  0  0  0  0  0  0  0  0
   94.1772   54.7621  270.3164 C   0  0  0  0  0  0  0  0  0  0  0  0
   93.3120   54.5077  271.3434 C   0  0  0  0  0  0  0  0  0  0  0  0
   92.7370   53.2548  271.2326 N   0  0  0  0  0  0  0  0  0  0  0  0
   91.8268   52.6667  272.1752 C   0  0  0  0  0  0  0  0  0  0  0  0
   89.6772   47.3563  265.3181 C   0  0  0  0  0  0  0  0  0  0  0  0
   90.3332   47.0353  264.1264 C   0  0  0  0  0  0  0  0  0  0  0  0
   89.7129   46.1911  263.1996 C   0  0  0  0  0  0  0  0  0  0  0  0
   88.4539   45.6752  263.4709 C   0  0  0  0  0  0  0  0  0  0  0  0
   87.7916   45.9887  264.6598 C   0  0  0  0  0  0  0  0  0  0  0  0
   88.4119   46.8267  265.5812 C   0  0  0  0  0  0  0  0  0  0  0  0
   91.2294   50.3107  267.3989 H   0  0  0  0  0  0  0  0  0  0  0  0
   92.2509   46.3865  266.0612 H   0  0  0  0  0  0  0  0  0  0  0  0
   92.1616   50.8067  269.9006 H   0  0  0  0  0  0  0  0  0  0  0  0
   95.6408   53.8238  267.9347 H   0  0  0  0  0  0  0  0  0  0  0  0
   95.0959   51.6130  266.9079 H   0  0  0  0  0  0  0  0  0  0  0  0
   96.7818   45.9556  267.0777 H   0  0  0  0  0  0  0  0  0  0  0  0
   97.4757   48.1001  268.0404 H   0  0  0  0  0  0  0  0  0  0  0  0
   94.7502   55.6621  270.1486 H   0  0  0  0  0  0  0  0  0  0  0  0
   93.1027   55.2011  272.1445 H   0  0  0  0  0  0  0  0  0  0  0  0
   91.6412   53.3741  272.9969 H   0  0  0  0  0  0  0  0  0  0  0  0
   90.8774   52.4331  271.6712 H   0  0  0  0  0  0  0  0  0  0  0  0
   92.2645   51.7421  272.5795 H   0  0  0  0  0  0  0  0  0  0  0  0
   91.3146   47.4373  263.9221 H   0  0  0  0  0  0  0  0  0  0  0  0
   90.2127   45.9415  262.2753 H   0  0  0  0  0  0  0  0  0  0  0  0
   87.9796   45.0224  262.7530 H   0  0  0  0  0  0  0  0  0  0  0  0
   86.8101   45.5857  264.8615 H   0  0  0  0  0  0  0  0  0  0  0  0
   88.4975   46.2566  266.5180 H   0  0  0  0  0  0  0  0  0  0  0  0
   87.7375   47.6823  265.7330 H   0  0  0  0  0  0  0  0  0  0  0  0
  1  2  2  0  0  0  0
  1  6  1  0  0  0  0
  1 17  1  0  0  0  0
  2  3  1  0  0  0  0
  3  4  2  0  0  0  0
  3  7  1  0  0  0  0
  4  5  1  0  0  0  0
  4 16  1  0  0  0  0
  5  6  2  0  0  0  0
  5 13  1  0  0  0  0
  7  8  2  0  0  0  0
  7 12  1  0  0  0  0
  8  9  1  0  0  0  0
  9 10  2  0  0  0  0
  9 20  1  0  0  0  0
 10 11  1  0  0  0  0
 10 18  1  0  0  0  0
 11 12  2  0  0  0  0
 13 14  2  0  0  0  0
 14 15  1  0  0  0  0
 15 16  2  0  0  0  0
 17 22  2  3  0  0  0
 18 19  2  0  0  0  0
 19 20  1  0  0  0  0
 20 21  1  0  0  0  0
 22 23  1  0  0  0  0
 22 27  1  0  0  0  0
 23 24  2  0  0  0  0
 24 25  1  0  0  0  0
 25 26  2  0  0  0  0
 26 27  1  0  0  0  0
  2 28  1  0  0  0  0
  6 29  1  0  0  0  0
  8 30  1  0  0  0  0
 11 31  1  0  0  0  0
 12 32  1  0  0  0  0
 14 33  1  0  0  0  0
 15 34  1  0  0  0  0
 18 35  1  0  0  0  0
 19 36  1  0  0  0  0
 21 37  1  0  0  0  0
 21 38  1  0  0  0  0
 21 39  1  0  0  0  0
 23 40  1  0  0  0  0
 24 41  1  0  0  0  0
 25 42  1  0  0  0  0
 26 43  1  0  0  0  0
 27 44  1  0  0  0  0
 27 45  1  0  0  0  0
M  END
> <ID>
19

> <IC50[uM]>
2.919

$$$$
19
  -OEChem-05192314313D
 Structure written by MMmdl.
 45 49  0     1  0  0  0  0  0999 V2000
   91.5919   48.3113  266.7137 C   0  0  0  0  0  0  0  0  0  0  0  0
   91.9737   49.5382  267.2740 C   0  0  0  0  0  0  0  0  0  0  0  0
   93.2784   49.7908  267.6730 C   0  0  0  0  0  0  0  0  0  0  0  0
   94.2680   48.7772  267.5133 C   0  0  3  0  0  0  0  0  0  0  0  0
   93.8795   47.5270  266.9201 C   0  0  0  0  0  0  0  0  0  0  0  0
   92.5376   47.3212  266.5200 C   0  0  0  0  0  0  0  0  0  0  0  0
   93.5872   51.0945  268.3284 C   0  0  0  0  0  0  0  0  0  0  0  0
   92.9105   51.4581  269.4749 C   0  0  0  0  0  0  0  0  0  0  0  0
   93.2075   52.6695  270.0688 C   0  0  0  0  0  0  0  0  0  0  0  0
   94.1599   53.5455  269.4884 C   0  0  0  0  0  0  0  0  0  0  0  0
   94.8806   53.1831  268.3564 C   0  0  0  0  0  0  0  0  0  0  0  0
   94.5635   51.9339  267.7910 C   0  0  0  0  0  0  0  0  0  0  0  0
   94.7950   46.5293  266.7603 N   0  0  0  0  0  0  0  0  0  0  0  0
   96.0527   46.7456  267.1808 C   0  0  0  0  0  0  0  0  0  0  0  0
   96.4462   47.9586  267.7463 C   0  0  0  0  0  0  0  0  0  0  0  0
   95.5547   48.9614  267.9316 N   0  0  0  0  0  0  0  0  0  0  0  0
   90.2589   48.1474  266.3192 N   0  0  0  0  0  0  0  0  0  0  0  0
   94.1772   54.7621  270.3164 C   0  0  0  0  0  0  0  0  0  0  0  0
   93.3120   54.5077  271.3434 C   0  0  0  0  0  0  0  0  0  0  0  0
   92.7370   53.2548  271.2326 N   0  0  0  0  0  0  0  0  0  0  0  0
   91.8268   52.6667  272.1752 C   0  0  0  0  0  0  0  0  0  0  0  0
   89.6772   47.3563  265.3181 C   0  0  0  0  0  0  0  0  0  0  0  0
   90.3332   47.0353  264.1264 C   0  0  0  0  0  0  0  0  0  0  0  0
   89.7129   46.1911  263.1996 C   0  0  0  0  0  0  0  0  0  0  0  0
   88.4539   45.6752  263.4709 C   0  0  0  0  0  0  0  0  0  0  0  0
   87.7916   45.9887  264.6598 C   0  0  0  0  0  0  0  0  0  0  0  0
   88.4119   46.8267  265.5812 C   0  0  0  0  0  0  0  0  0  0  0  0
   91.2294   50.3107  267.3989 H   0  0  0  0  0  0  0  0  0  0  0  0
   94.5259   49.1757  266.5210 H   0  0  0  0  0  0  0  0  0  0  0  0
   92.2509   46.3865  266.0612 H   0  0  0  0  0  0  0  0  0  0  0  0
   92.1616   50.8067  269.9006 H   0  0  0  0  0  0  0  0  0  0  0  0
   95.6408   53.8238  267.9347 H   0  0  0  0  0  0  0  0  0  0  0  0
   95.0959   51.6130  266.9079 H   0  0  0  0  0  0  0  0  0  0  0  0
   96.7818   45.9556  267.0777 H   0  0  0  0  0  0  0  0  0  0  0  0
   97.4757   48.1001  268.0404 H   0  0  0  0  0  0  0  0  0  0  0  0
   94.7502   55.6621  270.1486 H   0  0  0  0  0  0  0  0  0  0  0  0
   93.1027   55.2011  272.1445 H   0  0  0  0  0  0  0  0  0  0  0  0
   91.6412   53.3741  272.9969 H   0  0  0  0  0  0  0  0  0  0  0  0
   90.8774   52.4331  271.6712 H   0  0  0  0  0  0  0  0  0  0  0  0
   92.2645   51.7421  272.5795 H   0  0  0  0  0  0  0  0  0  0  0  0
   91.3146   47.4373  263.9221 H   0  0  0  0  0  0  0  0  0  0  0  0
   90.2127   45.9415  262.2753 H   0  0  0  0  0  0  0  0  0  0  0  0
   87.9796   45.0224  262.7530 H   0  0  0  0  0  0  0  0  0  0  0  0
   86.8101   45.5857  264.8615 H   0  0  0  0  0  0  0  0  0  0  0  0
   87.9112   47.0694  266.5068 H   0  0  0  0  0  0  0  0  0  0  0  0
  1  2  1  0  0  0  0
  1  6  1  0  0  0  0
  1 17  2  0  0  0  0
  2  3  2  0  0  0  0
  3  4  1  0  0  0  0
  3  7  1  0  0  0  0
  4  5  1  0  0  0  0
  4 16  1  0  0  0  0
  5  6  2  0  0  0  0
  5 13  1  0  0  0  0
  7  8  2  0  0  0  0
  7 12  1  0  0  0  0
  8  9  1  0  0  0  0
  9 10  2  0  0  0  0
  9 20  1  0  0  0  0
 10 11  1  0  0  0  0
 10 18  1  0  0  0  0
 11 12  2  0  0  0  0
 13 14  2  0  0  0  0
 14 15  1  0  0  0  0
 15 16  2  0  0  0  0
 17 22  1  0  0  0  0
 18 19  2  0  0  0  0
 19 20  1  0  0  0  0
 20 21  1  0  0  0  0
 22 23  2  0  0  0  0
 22 27  1  0  0  0  0
 23 24  1  0  0  0  0
 24 25  2  0  0  0  0
 25 26  1  0  0  0  0
 26 27  2  0  0  0  0
  2 28  1  0  0  0  0
  4 29  1  0  0  0  0
  6 30  1  0  0  0  0
  8 31  1  0  0  0  0
 11 32  1  0  0  0  0
 12 33  1  0  0  0  0
 14 34  1  0  0  0  0
 15 35  1  0  0  0  0
 18 36  1  0  0  0  0
 19 37  1  0  0  0  0
 21 38  1  0  0  0  0
 21 39  1  0  0  0  0
 21 40  1  0  0  0  0
 23 41  1  0  0  0  0
 24 42  1  0  0  0  0
 25 43  1  0  0  0  0
 26 44  1  0  0  0  0
 27 45  1  0  0  0  0
M  END
> <ID>
19

> <IC50[uM]>
2.919

$$$$
19
  -OEChem-05192314313D
 Structure written by MMmdl.
 45 49  0     0  0  0  0  0  0999 V2000
   91.5919   48.3113  266.7137 C   0  0  0  0  0  0  0  0  0  0  0  0
   91.9737   49.5382  267.2740 C   0  0  0  0  0  0  0  0  0  0  0  0
   93.2784   49.7908  267.6730 C   0  0  0  0  0  0  0  0  0  0  0  0
   94.2680   48.7772  267.5133 C   0  0  0  0  0  0  0  0  0  0  0  0
   93.8795   47.5270  266.9201 C   0  0  0  0  0  0  0  0  0  0  0  0
   92.5376   47.3212  266.5200 C   0  0  0  0  0  0  0  0  0  0  0  0
   93.5872   51.0945  268.3284 C   0  0  0  0  0  0  0  0  0  0  0  0
   92.9105   51.4581  269.4749 C   0  0  0  0  0  0  0  0  0  0  0  0
   93.2075   52.6695  270.0688 C   0  0  0  0  0  0  0  0  0  0  0  0
   94.1599   53.5455  269.4884 C   0  0  0  0  0  0  0  0  0  0  0  0
   94.8806   53.1831  268.3564 C   0  0  0  0  0  0  0  0  0  0  0  0
   94.5635   51.9339  267.7910 C   0  0  0  0  0  0  0  0  0  0  0  0
   94.7950   46.5293  266.7603 N   0  0  0  0  0  0  0  0  0  0  0  0
   96.0527   46.7456  267.1808 C   0  0  0  0  0  0  0  0  0  0  0  0
   96.4462   47.9586  267.7463 C   0  0  0  0  0  0  0  0  0  0  0  0
   95.5547   48.9614  267.9316 N   0  0  0  0  0  0  0  0  0  0  0  0
   90.2589   48.1474  266.3192 N   0  0  0  0  0  0  0  0  0  0  0  0
   94.1772   54.7621  270.3164 C   0  0  0  0  0  0  0  0  0  0  0  0
   93.3120   54.5077  271.3434 C   0  0  0  0  0  0  0  0  0  0  0  0
   92.7370   53.2548  271.2326 N   0  0  0  0  0  0  0  0  0  0  0  0
   91.8268   52.6667  272.1752 C   0  0  0  0  0  0  0  0  0  0  0  0
   89.6772   47.3563  265.3181 C   0  0  0  0  0  0  0  0  0  0  0  0
   90.3332   47.0353  264.1264 C   0  0  0  0  0  0  0  0  0  0  0  0
   89.7129   46.1911  263.1996 C   0  0  0  0  0  0  0  0  0  0  0  0
   88.4539   45.6752  263.4709 C   0  0  0  0  0  0  0  0  0  0  0  0
   87.7916   45.9887  264.6598 C   0  0  0  0  0  0  0  0  0  0  0  0
   88.4119   46.8267  265.5812 C   0  0  0  0  0  0  0  0  0  0  0  0
   91.2294   50.3107  267.3989 H   0  0  0  0  0  0  0  0  0  0  0  0
   92.2509   46.3865  266.0612 H   0  0  0  0  0  0  0  0  0  0  0  0
   92.1616   50.8067  269.9006 H   0  0  0  0  0  0  0  0  0  0  0  0
   95.6408   53.8238  267.9347 H   0  0  0  0  0  0  0  0  0  0  0  0
   95.0959   51.6130  266.9079 H   0  0  0  0  0  0  0  0  0  0  0  0
   96.7818   45.9556  267.0777 H   0  0  0  0  0  0  0  0  0  0  0  0
   96.8620   47.7221  268.7369 H   0  0  0  0  0  0  0  0  0  0  0  0
   97.2412   48.3615  267.1016 H   0  0  0  0  0  0  0  0  0  0  0  0
   94.7502   55.6621  270.1486 H   0  0  0  0  0  0  0  0  0  0  0  0
   93.1027   55.2011  272.1445 H   0  0  0  0  0  0  0  0  0  0  0  0
   91.6412   53.3741  272.9969 H   0  0  0  0  0  0  0  0  0  0  0  0
   90.8774   52.4331  271.6712 H   0  0  0  0  0  0  0  0  0  0  0  0
   92.2645   51.7421  272.5795 H   0  0  0  0  0  0  0  0  0  0  0  0
   91.3146   47.4373  263.9221 H   0  0  0  0  0  0  0  0  0  0  0  0
   90.2127   45.9415  262.2753 H   0  0  0  0  0  0  0  0  0  0  0  0
   87.9796   45.0224  262.7530 H   0  0  0  0  0  0  0  0  0  0  0  0
   86.8101   45.5857  264.8615 H   0  0  0  0  0  0  0  0  0  0  0  0
   87.9112   47.0694  266.5068 H   0  0  0  0  0  0  0  0  0  0  0  0
  1  2  1  0  0  0  0
  1  6  1  0  0  0  0
  1 17  2  0  0  0  0
  2  3  2  0  0  0  0
  3  4  1  0  0  0  0
  3  7  1  0  0  0  0
  4  5  1  0  0  0  0
  4 16  2  0  0  0  0
  5  6  2  0  0  0  0
  5 13  1  0  0  0  0
  7  8  2  0  0  0  0
  7 12  1  0  0  0  0
  8  9  1  0  0  0  0
  9 10  2  0  0  0  0
  9 20  1  0  0  0  0
 10 11  1  0  0  0  0
 10 18  1  0  0  0  0
 11 12  2  0  0  0  0
 13 14  2  0  0  0  0
 14 15  1  0  0  0  0
 15 16  1  0  0  0  0
 17 22  1  0  0  0  0
 18 19  2  0  0  0  0
 19 20  1  0  0  0  0
 20 21  1  0  0  0  0
 22 23  2  0  0  0  0
 22 27  1  0  0  0  0
 23 24  1  0  0  0  0
 24 25  2  0  0  0  0
 25 26  1  0  0  0  0
 26 27  2  0  0  0  0
  2 28  1  0  0  0  0
  6 29  1  0  0  0  0
  8 30  1  0  0  0  0
 11 31  1  0  0  0  0
 12 32  1  0  0  0  0
 14 33  1  0  0  0  0
 15 34  1  0  0  0  0
 15 35  1  0  0  0  0
 18 36  1  0  0  0  0
 19 37  1  0  0  0  0
 21 38  1  0  0  0  0
 21 39  1  0  0  0  0
 21 40  1  0  0  0  0
 23 41  1  0  0  0  0
 24 42  1  0  0  0  0
 25 43  1  0  0  0  0
 26 44  1  0  0  0  0
 27 45  1  0  0  0  0
M  END
> <ID>
19

> <IC50[uM]>
2.919

$$$$
