52
  -OEChem-05192314313D
 Structure written by MMmdl.
 53 57  0     0  0  0  0  0  0999 V2000
   93.3114   49.8130  267.6412 C   0  0  0  0  0  0  0  0  0  0  0  0
   92.5675   47.3461  266.4704 C   0  0  0  0  0  0  0  0  0  0  0  0
   91.6140   48.3391  266.6758 C   0  0  0  0  0  0  0  0  0  0  0  0
   91.9831   49.5402  267.2762 C   0  0  0  0  0  0  0  0  0  0  0  0
   93.8959   47.5397  266.9028 C   0  0  0  0  0  0  0  0  0  0  0  0
   94.2808   48.7816  267.4948 C   0  0  0  0  0  0  0  0  0  0  0  0
   95.5663   48.9631  267.9272 N   0  0  0  0  0  0  0  0  0  0  0  0
   96.4496   47.9536  267.7395 C   0  0  0  0  0  0  0  0  0  0  0  0
   96.0619   46.7444  267.1779 C   0  0  0  0  0  0  0  0  0  0  0  0
   94.7952   46.5297  266.7538 N   0  0  0  0  0  0  0  0  0  0  0  0
   90.2754   48.1313  266.3198 N   0  0  0  0  0  0  0  0  0  0  0  0
   89.7170   47.3507  265.2914 C   0  0  0  0  0  0  0  0  0  0  0  0
   90.4214   47.1275  264.1002 C   0  0  0  0  0  0  0  0  0  0  0  0
   89.9190   46.4350  263.0469 N   0  0  0  0  0  0  0  0  0  0  0  0
   88.6628   45.9396  263.1653 C   0  0  0  0  0  0  0  0  0  0  0  0
   87.8883   46.0973  264.3134 C   0  0  0  0  0  0  0  0  0  0  0  0
   88.4249   46.8053  265.3978 C   0  0  0  0  0  0  0  0  0  0  0  0
   87.4805   46.8913  266.9255 S   0  0  0  0  0  0  0  0  0  0  0  0
   86.1396   46.3665  266.6677 O   0  0  0  0  0  0  0  0  0  0  0  0
   87.6492   48.2417  267.4792 O   0  0  0  0  0  0  0  0  0  0  0  0
   88.3838   45.6765  268.0465 C   0  0  0  0  0  0  0  0  0  0  0  0
   93.6501   51.1190  268.2585 C   0  0  0  0  0  0  0  0  0  0  0  0
   94.6211   51.9736  267.7509 C   0  0  0  0  0  0  0  0  0  0  0  0
   94.8963   53.2015  268.3556 C   0  0  0  0  0  0  0  0  0  0  0  0
   92.9588   51.4516  269.4041 C   0  0  0  0  0  0  0  0  0  0  0  0
   93.2230   52.6641  270.0467 C   0  0  0  0  0  0  0  0  0  0  0  0
   94.1745   53.5756  269.5049 C   0  0  0  0  0  0  0  0  0  0  0  0
   94.1617   54.7286  270.3490 C   0  0  0  0  0  0  0  0  0  0  0  0
   93.2720   54.4750  271.3665 C   0  0  0  0  0  0  0  0  0  0  0  0
   92.7072   53.2287  271.2146 N   0  0  0  0  0  0  0  0  0  0  0  0
   91.8097   52.6164  272.2119 C   0  0  0  0  0  0  0  0  0  0  0  0
   90.7891   51.6506  271.6176 C   0  0  0  0  0  0  0  0  0  0  0  0
   92.2895   46.4255  265.9789 H   0  0  0  0  0  0  0  0  0  0  0  0
   91.2244   50.2848  267.4670 H   0  0  0  0  0  0  0  0  0  0  0  0
   97.4795   48.0924  268.0335 H   0  0  0  0  0  0  0  0  0  0  0  0
   96.7910   45.9541  267.0769 H   0  0  0  0  0  0  0  0  0  0  0  0
   89.6099   48.6155  266.8878 H   0  0  0  0  0  0  0  0  0  0  0  0
   91.4203   47.5294  264.0160 H   0  0  0  0  0  0  0  0  0  0  0  0
   88.2425   45.3974  262.3312 H   0  0  0  0  0  0  0  0  0  0  0  0
   86.8929   45.6816  264.3665 H   0  0  0  0  0  0  0  0  0  0  0  0
   87.8875   45.6435  269.0276 H   0  0  0  0  0  0  0  0  0  0  0  0
   88.3648   44.6749  267.5923 H   0  0  0  0  0  0  0  0  0  0  0  0
   89.4269   46.0015  268.1741 H   0  0  0  0  0  0  0  0  0  0  0  0
   95.1743   51.6819  266.8704 H   0  0  0  0  0  0  0  0  0  0  0  0
   95.6526   53.8555  267.9472 H   0  0  0  0  0  0  0  0  0  0  0  0
   92.2156   50.7774  269.8035 H   0  0  0  0  0  0  0  0  0  0  0  0
   94.7416   55.6296  270.2134 H   0  0  0  0  0  0  0  0  0  0  0  0
   93.0477   55.1582  272.1723 H   0  0  0  0  0  0  0  0  0  0  0  0
   92.4247   52.0657  272.9388 H   0  0  0  0  0  0  0  0  0  0  0  0
   91.2651   53.4211  272.7275 H   0  0  0  0  0  0  0  0  0  0  0  0
   90.1614   51.2390  272.4218 H   0  0  0  0  0  0  0  0  0  0  0  0
   90.1552   52.1859  270.8954 H   0  0  0  0  0  0  0  0  0  0  0  0
   91.3148   50.8304  271.1068 H   0  0  0  0  0  0  0  0  0  0  0  0
  1  4  2  0  0  0  0
  1  6  1  0  0  0  0
  1 22  1  0  0  0  0
  2  3  2  0  0  0  0
  2  5  1  0  0  0  0
  3  4  1  0  0  0  0
  3 11  1  0  0  0  0
  5  6  2  0  0  0  0
  5 10  1  0  0  0  0
  6  7  1  0  0  0  0
  7  8  2  0  0  0  0
  8  9  1  0  0  0  0
  9 10  2  0  0  0  0
 11 12  1  0  0  0  0
 12 13  2  0  0  0  0
 12 17  1  0  0  0  0
 13 14  1  0  0  0  0
 14 15  2  0  0  0  0
 15 16  1  0  0  0  0
 16 17  2  0  0  0  0
 17 18  1  0  0  0  0
 18 19  2  0  0  0  0
 18 20  2  0  0  0  0
 18 21  1  0  0  0  0
 22 23  2  0  0  0  0
 22 25  1  0  0  0  0
 23 24  1  0  0  0  0
 24 27  2  0  0  0  0
 25 26  2  0  0  0  0
 26 27  1  0  0  0  0
 26 30  1  0  0  0  0
 27 28  1  0  0  0  0
 28 29  2  0  0  0  0
 29 30  1  0  0  0  0
 30 31  1  0  0  0  0
 31 32  1  0  0  0  0
  2 33  1  0  0  0  0
  4 34  1  0  0  0  0
  8 35  1  0  0  0  0
  9 36  1  0  0  0  0
 11 37  1  0  0  0  0
 13 38  1  0  0  0  0
 15 39  1  0  0  0  0
 16 40  1  0  0  0  0
 21 41  1  0  0  0  0
 21 42  1  0  0  0  0
 21 43  1  0  0  0  0
 23 44  1  0  0  0  0
 24 45  1  0  0  0  0
 25 46  1  0  0  0  0
 28 47  1  0  0  0  0
 29 48  1  0  0  0  0
 31 49  1  0  0  0  0
 31 50  1  0  0  0  0
 32 51  1  0  0  0  0
 32 52  1  0  0  0  0
 32 53  1  0  0  0  0
M  END
> <ID>
52

> <IC50[uM]>
0.024

$$$$
52
  -OEChem-05192314313D
 Structure written by MMmdl.
 53 57  0     0  0  0  0  0  0999 V2000
   93.3114   49.8130  267.6412 C   0  0  0  0  0  0  0  0  0  0  0  0
   92.5675   47.3461  266.4704 C   0  0  0  0  0  0  0  0  0  0  0  0
   91.6140   48.3391  266.6758 C   0  0  0  0  0  0  0  0  0  0  0  0
   91.9831   49.5402  267.2762 C   0  0  0  0  0  0  0  0  0  0  0  0
   93.8959   47.5397  266.9028 C   0  0  0  0  0  0  0  0  0  0  0  0
   94.2808   48.7816  267.4948 C   0  0  0  0  0  0  0  0  0  0  0  0
   95.5663   48.9631  267.9272 N   0  0  0  0  0  0  0  0  0  0  0  0
   96.4496   47.9536  267.7395 C   0  0  0  0  0  0  0  0  0  0  0  0
   96.0619   46.7444  267.1779 C   0  0  0  0  0  0  0  0  0  0  0  0
   94.7952   46.5297  266.7538 N   0  0  0  0  0  0  0  0  0  0  0  0
   90.2754   48.1313  266.3198 N   0  0  0  0  0  0  0  0  0  0  0  0
   89.7170   47.3507  265.2914 C   0  0  0  0  0  0  0  0  0  0  0  0
   90.4214   47.1275  264.1002 C   0  0  0  0  0  0  0  0  0  0  0  0
   89.9190   46.4350  263.0469 N   0  0  0  0  0  0  0  0  0  0  0  0
   88.6628   45.9396  263.1653 C   0  0  0  0  0  0  0  0  0  0  0  0
   87.8883   46.0973  264.3134 C   0  0  0  0  0  0  0  0  0  0  0  0
   88.4249   46.8053  265.3978 C   0  0  0  0  0  0  0  0  0  0  0  0
   87.4805   46.8913  266.9255 S   0  0  0  0  0  0  0  0  0  0  0  0
   86.1396   46.3665  266.6677 O   0  0  0  0  0  0  0  0  0  0  0  0
   87.6492   48.2417  267.4792 O   0  0  0  0  0  0  0  0  0  0  0  0
   88.3838   45.6765  268.0465 C   0  0  0  0  0  0  0  0  0  0  0  0
   93.6501   51.1190  268.2585 C   0  0  0  0  0  0  0  0  0  0  0  0
   94.6211   51.9736  267.7509 C   0  0  0  0  0  0  0  0  0  0  0  0
   94.8963   53.2015  268.3556 C   0  0  0  0  0  0  0  0  0  0  0  0
   92.9588   51.4516  269.4041 C   0  0  0  0  0  0  0  0  0  0  0  0
   93.2230   52.6641  270.0467 C   0  0  0  0  0  0  0  0  0  0  0  0
   94.1745   53.5756  269.5049 C   0  0  0  0  0  0  0  0  0  0  0  0
   94.1617   54.7286  270.3490 C   0  0  0  0  0  0  0  0  0  0  0  0
   93.2720   54.4750  271.3665 C   0  0  0  0  0  0  0  0  0  0  0  0
   92.7072   53.2287  271.2146 N   0  0  0  0  0  0  0  0  0  0  0  0
   91.8097   52.6164  272.2119 C   0  0  0  0  0  0  0  0  0  0  0  0
   90.7891   51.6506  271.6176 C   0  0  0  0  0  0  0  0  0  0  0  0
   92.2895   46.4255  265.9789 H   0  0  0  0  0  0  0  0  0  0  0  0
   91.2244   50.2848  267.4670 H   0  0  0  0  0  0  0  0  0  0  0  0
   97.4795   48.0924  268.0335 H   0  0  0  0  0  0  0  0  0  0  0  0
   96.7910   45.9541  267.0769 H   0  0  0  0  0  0  0  0  0  0  0  0
   94.5287   45.6572  266.3443 H   0  0  0  0  0  0  0  0  0  0  0  0
   91.4203   47.5294  264.0160 H   0  0  0  0  0  0  0  0  0  0  0  0
   88.2425   45.3974  262.3312 H   0  0  0  0  0  0  0  0  0  0  0  0
   86.8929   45.6816  264.3665 H   0  0  0  0  0  0  0  0  0  0  0  0
   87.8875   45.6435  269.0276 H   0  0  0  0  0  0  0  0  0  0  0  0
   88.3648   44.6749  267.5923 H   0  0  0  0  0  0  0  0  0  0  0  0
   89.4269   46.0015  268.1741 H   0  0  0  0  0  0  0  0  0  0  0  0
   95.1743   51.6819  266.8704 H   0  0  0  0  0  0  0  0  0  0  0  0
   95.6526   53.8555  267.9472 H   0  0  0  0  0  0  0  0  0  0  0  0
   92.2156   50.7774  269.8035 H   0  0  0  0  0  0  0  0  0  0  0  0
   94.7416   55.6296  270.2134 H   0  0  0  0  0  0  0  0  0  0  0  0
   93.0477   55.1582  272.1723 H   0  0  0  0  0  0  0  0  0  0  0  0
   92.4247   52.0657  272.9388 H   0  0  0  0  0  0  0  0  0  0  0  0
   91.2651   53.4211  272.7275 H   0  0  0  0  0  0  0  0  0  0  0  0
   90.1614   51.2390  272.4218 H   0  0  0  0  0  0  0  0  0  0  0  0
   90.1552   52.1859  270.8954 H   0  0  0  0  0  0  0  0  0  0  0  0
   91.3148   50.8304  271.1068 H   0  0  0  0  0  0  0  0  0  0  0  0
  1  4  2  0  0  0  0
  1  6  1  0  0  0  0
  1 22  1  0  0  0  0
  2  3  1  0  0  0  0
  2  5  2  0  0  0  0
  3  4  1  0  0  0  0
  3 11  2  3  0  0  0
  5  6  1  0  0  0  0
  5 10  1  0  0  0  0
  6  7  2  0  0  0  0
  7  8  1  0  0  0  0
  8  9  2  0  0  0  0
  9 10  1  0  0  0  0
 11 12  1  0  0  0  0
 12 13  2  0  0  0  0
 12 17  1  0  0  0  0
 13 14  1  0  0  0  0
 14 15  2  0  0  0  0
 15 16  1  0  0  0  0
 16 17  2  0  0  0  0
 17 18  1  0  0  0  0
 18 19  2  0  0  0  0
 18 20  2  0  0  0  0
 18 21  1  0  0  0  0
 22 23  2  0  0  0  0
 22 25  1  0  0  0  0
 23 24  1  0  0  0  0
 24 27  2  0  0  0  0
 25 26  2  0  0  0  0
 26 27  1  0  0  0  0
 26 30  1  0  0  0  0
 27 28  1  0  0  0  0
 28 29  2  0  0  0  0
 29 30  1  0  0  0  0
 30 31  1  0  0  0  0
 31 32  1  0  0  0  0
  2 33  1  0  0  0  0
  4 34  1  0  0  0  0
  8 35  1  0  0  0  0
  9 36  1  0  0  0  0
 10 37  1  0  0  0  0
 13 38  1  0  0  0  0
 15 39  1  0  0  0  0
 16 40  1  0  0  0  0
 21 41  1  0  0  0  0
 21 42  1  0  0  0  0
 21 43  1  0  0  0  0
 23 44  1  0  0  0  0
 24 45  1  0  0  0  0
 25 46  1  0  0  0  0
 28 47  1  0  0  0  0
 29 48  1  0  0  0  0
 31 49  1  0  0  0  0
 31 50  1  0  0  0  0
 32 51  1  0  0  0  0
 32 52  1  0  0  0  0
 32 53  1  0  0  0  0
M  END
> <ID>
52

> <IC50[uM]>
0.024

$$$$
52
  -OEChem-05192314313D
 Structure written by MMmdl.
 53 57  0     0  0  0  0  0  0999 V2000
   93.3114   49.8130  267.6412 C   0  0  0  0  0  0  0  0  0  0  0  0
   92.5675   47.3461  266.4704 C   0  0  0  0  0  0  0  0  0  0  0  0
   91.6140   48.3391  266.6758 C   0  0  0  0  0  0  0  0  0  0  0  0
   91.9831   49.5402  267.2762 C   0  0  0  0  0  0  0  0  0  0  0  0
   93.8959   47.5397  266.9028 C   0  0  0  0  0  0  0  0  0  0  0  0
   94.2808   48.7816  267.4948 C   0  0  0  0  0  0  0  0  0  0  0  0
   95.5663   48.9631  267.9272 N   0  0  0  0  0  0  0  0  0  0  0  0
   96.4496   47.9536  267.7395 C   0  0  0  0  0  0  0  0  0  0  0  0
   96.0619   46.7444  267.1779 C   0  0  0  0  0  0  0  0  0  0  0  0
   94.7952   46.5297  266.7538 N   0  0  0  0  0  0  0  0  0  0  0  0
   90.2754   48.1313  266.3198 N   0  0  0  0  0  0  0  0  0  0  0  0
   89.7170   47.3507  265.2914 C   0  0  0  0  0  0  0  0  0  0  0  0
   90.4214   47.1275  264.1002 C   0  0  0  0  0  0  0  0  0  0  0  0
   89.9190   46.4350  263.0469 N   0  0  0  0  0  0  0  0  0  0  0  0
   88.6628   45.9396  263.1653 C   0  0  0  0  0  0  0  0  0  0  0  0
   87.8883   46.0973  264.3134 C   0  0  0  0  0  0  0  0  0  0  0  0
   88.4249   46.8053  265.3978 C   0  0  0  0  0  0  0  0  0  0  0  0
   87.4805   46.8913  266.9255 S   0  0  0  0  0  0  0  0  0  0  0  0
   86.1396   46.3665  266.6677 O   0  0  0  0  0  0  0  0  0  0  0  0
   87.6492   48.2417  267.4792 O   0  0  0  0  0  0  0  0  0  0  0  0
   88.3838   45.6765  268.0465 C   0  0  0  0  0  0  0  0  0  0  0  0
   93.6501   51.1190  268.2585 C   0  0  0  0  0  0  0  0  0  0  0  0
   94.6211   51.9736  267.7509 C   0  0  0  0  0  0  0  0  0  0  0  0
   94.8963   53.2015  268.3556 C   0  0  0  0  0  0  0  0  0  0  0  0
   92.9588   51.4516  269.4041 C   0  0  0  0  0  0  0  0  0  0  0  0
   93.2230   52.6641  270.0467 C   0  0  0  0  0  0  0  0  0  0  0  0
   94.1745   53.5756  269.5049 C   0  0  0  0  0  0  0  0  0  0  0  0
   94.1617   54.7286  270.3490 C   0  0  0  0  0  0  0  0  0  0  0  0
   93.2720   54.4750  271.3665 C   0  0  0  0  0  0  0  0  0  0  0  0
   92.7072   53.2287  271.2146 N   0  0  0  0  0  0  0  0  0  0  0  0
   91.8097   52.6164  272.2119 C   0  0  0  0  0  0  0  0  0  0  0  0
   90.7891   51.6506  271.6176 C   0  0  0  0  0  0  0  0  0  0  0  0
   92.1979   46.4423  266.9769 H   0  0  0  0  0  0  0  0  0  0  0  0
   92.6101   47.1672  265.3859 H   0  0  0  0  0  0  0  0  0  0  0  0
   91.2244   50.2848  267.4670 H   0  0  0  0  0  0  0  0  0  0  0  0
   97.4795   48.0924  268.0335 H   0  0  0  0  0  0  0  0  0  0  0  0
   96.7910   45.9541  267.0769 H   0  0  0  0  0  0  0  0  0  0  0  0
   91.4203   47.5294  264.0160 H   0  0  0  0  0  0  0  0  0  0  0  0
   88.2425   45.3974  262.3312 H   0  0  0  0  0  0  0  0  0  0  0  0
   86.8929   45.6816  264.3665 H   0  0  0  0  0  0  0  0  0  0  0  0
   87.8875   45.6435  269.0276 H   0  0  0  0  0  0  0  0  0  0  0  0
   88.3648   44.6749  267.5923 H   0  0  0  0  0  0  0  0  0  0  0  0
   89.4269   46.0015  268.1741 H   0  0  0  0  0  0  0  0  0  0  0  0
   95.1743   51.6819  266.8704 H   0  0  0  0  0  0  0  0  0  0  0  0
   95.6526   53.8555  267.9472 H   0  0  0  0  0  0  0  0  0  0  0  0
   92.2156   50.7774  269.8035 H   0  0  0  0  0  0  0  0  0  0  0  0
   94.7416   55.6296  270.2134 H   0  0  0  0  0  0  0  0  0  0  0  0
   93.0477   55.1582  272.1723 H   0  0  0  0  0  0  0  0  0  0  0  0
   92.4247   52.0657  272.9388 H   0  0  0  0  0  0  0  0  0  0  0  0
   91.2651   53.4211  272.7275 H   0  0  0  0  0  0  0  0  0  0  0  0
   90.1614   51.2390  272.4218 H   0  0  0  0  0  0  0  0  0  0  0  0
   90.1552   52.1859  270.8954 H   0  0  0  0  0  0  0  0  0  0  0  0
   91.3148   50.8304  271.1068 H   0  0  0  0  0  0  0  0  0  0  0  0
  1  4  2  0  0  0  0
  1  6  1  0  0  0  0
  1 22  1  0  0  0  0
  2  3  1  0  0  0  0
  2  5  1  0  0  0  0
  3  4  1  0  0  0  0
  3 11  2  3  0  0  0
  5  6  2  0  0  0  0
  5 10  1  0  0  0  0
  6  7  1  0  0  0  0
  7  8  2  0  0  0  0
  8  9  1  0  0  0  0
  9 10  2  0  0  0  0
 11 12  1  0  0  0  0
 12 13  2  0  0  0  0
 12 17  1  0  0  0  0
 13 14  1  0  0  0  0
 14 15  2  0  0  0  0
 15 16  1  0  0  0  0
 16 17  2  0  0  0  0
 17 18  1  0  0  0  0
 18 19  2  0  0  0  0
 18 20  2  0  0  0  0
 18 21  1  0  0  0  0
 22 23  2  0  0  0  0
 22 25  1  0  0  0  0
 23 24  1  0  0  0  0
 24 27  2  0  0  0  0
 25 26  2  0  0  0  0
 26 27  1  0  0  0  0
 26 30  1  0  0  0  0
 27 28  1  0  0  0  0
 28 29  2  0  0  0  0
 29 30  1  0  0  0  0
 30 31  1  0  0  0  0
 31 32  1  0  0  0  0
  2 33  1  0  0  0  0
  2 34  1  0  0  0  0
  4 35  1  0  0  0  0
  8 36  1  0  0  0  0
  9 37  1  0  0  0  0
 13 38  1  0  0  0  0
 15 39  1  0  0  0  0
 16 40  1  0  0  0  0
 21 41  1  0  0  0  0
 21 42  1  0  0  0  0
 21 43  1  0  0  0  0
 23 44  1  0  0  0  0
 24 45  1  0  0  0  0
 25 46  1  0  0  0  0
 28 47  1  0  0  0  0
 29 48  1  0  0  0  0
 31 49  1  0  0  0  0
 31 50  1  0  0  0  0
 32 51  1  0  0  0  0
 32 52  1  0  0  0  0
 32 53  1  0  0  0  0
M  END
> <ID>
52

> <IC50[uM]>
0.024

$$$$
52
  -OEChem-05192314313D
 Structure written by MMmdl.
 53 57  0     0  0  0  0  0  0999 V2000
   93.3114   49.8130  267.6412 C   0  0  0  0  0  0  0  0  0  0  0  0
   92.5675   47.3461  266.4704 C   0  0  0  0  0  0  0  0  0  0  0  0
   91.6140   48.3391  266.6758 C   0  0  0  0  0  0  0  0  0  0  0  0
   91.9831   49.5402  267.2762 C   0  0  0  0  0  0  0  0  0  0  0  0
   93.8959   47.5397  266.9028 C   0  0  0  0  0  0  0  0  0  0  0  0
   94.2808   48.7816  267.4948 C   0  0  0  0  0  0  0  0  0  0  0  0
   95.5663   48.9631  267.9272 N   0  0  0  0  0  0  0  0  0  0  0  0
   96.4496   47.9536  267.7395 C   0  0  0  0  0  0  0  0  0  0  0  0
   96.0619   46.7444  267.1779 C   0  0  0  0  0  0  0  0  0  0  0  0
   94.7952   46.5297  266.7538 N   0  0  0  0  0  0  0  0  0  0  0  0
   90.2754   48.1313  266.3198 N   0  0  0  0  0  0  0  0  0  0  0  0
   89.7170   47.3507  265.2914 C   0  0  0  0  0  0  0  0  0  0  0  0
   90.4214   47.1275  264.1002 C   0  0  0  0  0  0  0  0  0  0  0  0
   89.9190   46.4350  263.0469 N   0  0  0  0  0  0  0  0  0  0  0  0
   88.6628   45.9396  263.1653 C   0  0  0  0  0  0  0  0  0  0  0  0
   87.8883   46.0973  264.3134 C   0  0  0  0  0  0  0  0  0  0  0  0
   88.4249   46.8053  265.3978 C   0  0  0  0  0  0  0  0  0  0  0  0
   87.4805   46.8913  266.9255 S   0  0  0  0  0  0  0  0  0  0  0  0
   86.1396   46.3665  266.6677 O   0  0  0  0  0  0  0  0  0  0  0  0
   87.6492   48.2417  267.4792 O   0  0  0  0  0  0  0  0  0  0  0  0
   88.3838   45.6765  268.0465 C   0  0  0  0  0  0  0  0  0  0  0  0
   93.6501   51.1190  268.2585 C   0  0  0  0  0  0  0  0  0  0  0  0
   94.6211   51.9736  267.7509 C   0  0  0  0  0  0  0  0  0  0  0  0
   94.8963   53.2015  268.3556 C   0  0  0  0  0  0  0  0  0  0  0  0
   92.9588   51.4516  269.4041 C   0  0  0  0  0  0  0  0  0  0  0  0
   93.2230   52.6641  270.0467 C   0  0  0  0  0  0  0  0  0  0  0  0
   94.1745   53.5756  269.5049 C   0  0  0  0  0  0  0  0  0  0  0  0
   94.1617   54.7286  270.3490 C   0  0  0  0  0  0  0  0  0  0  0  0
   93.2720   54.4750  271.3665 C   0  0  0  0  0  0  0  0  0  0  0  0
   92.7072   53.2287  271.2146 N   0  0  0  0  0  0  0  0  0  0  0  0
   91.8097   52.6164  272.2119 C   0  0  0  0  0  0  0  0  0  0  0  0
   90.7891   51.6506  271.6176 C   0  0  0  0  0  0  0  0  0  0  0  0
   92.2895   46.4255  265.9789 H   0  0  0  0  0  0  0  0  0  0  0  0
   91.3882   49.6190  268.1981 H   0  0  0  0  0  0  0  0  0  0  0  0
   91.6857   50.3371  266.5787 H   0  0  0  0  0  0  0  0  0  0  0  0
   97.4795   48.0924  268.0335 H   0  0  0  0  0  0  0  0  0  0  0  0
   96.7910   45.9541  267.0769 H   0  0  0  0  0  0  0  0  0  0  0  0
   91.4203   47.5294  264.0160 H   0  0  0  0  0  0  0  0  0  0  0  0
   88.2425   45.3974  262.3312 H   0  0  0  0  0  0  0  0  0  0  0  0
   86.8929   45.6816  264.3665 H   0  0  0  0  0  0  0  0  0  0  0  0
   87.8875   45.6435  269.0276 H   0  0  0  0  0  0  0  0  0  0  0  0
   88.3648   44.6749  267.5923 H   0  0  0  0  0  0  0  0  0  0  0  0
   89.4269   46.0015  268.1741 H   0  0  0  0  0  0  0  0  0  0  0  0
   95.1743   51.6819  266.8704 H   0  0  0  0  0  0  0  0  0  0  0  0
   95.6526   53.8555  267.9472 H   0  0  0  0  0  0  0  0  0  0  0  0
   92.2156   50.7774  269.8035 H   0  0  0  0  0  0  0  0  0  0  0  0
   94.7416   55.6296  270.2134 H   0  0  0  0  0  0  0  0  0  0  0  0
   93.0477   55.1582  272.1723 H   0  0  0  0  0  0  0  0  0  0  0  0
   92.4247   52.0657  272.9388 H   0  0  0  0  0  0  0  0  0  0  0  0
   91.2651   53.4211  272.7275 H   0  0  0  0  0  0  0  0  0  0  0  0
   90.1614   51.2390  272.4218 H   0  0  0  0  0  0  0  0  0  0  0  0
   90.1552   52.1859  270.8954 H   0  0  0  0  0  0  0  0  0  0  0  0
   91.3148   50.8304  271.1068 H   0  0  0  0  0  0  0  0  0  0  0  0
  1  4  1  0  0  0  0
  1  6  2  0  0  0  0
  1 22  1  0  0  0  0
  2  3  1  0  0  0  0
  2  5  2  0  0  0  0
  3  4  1  0  0  0  0
  3 11  2  3  0  0  0
  5  6  1  0  0  0  0
  5 10  1  0  0  0  0
  6  7  1  0  0  0  0
  7  8  2  0  0  0  0
  8  9  1  0  0  0  0
  9 10  2  0  0  0  0
 11 12  1  0  0  0  0
 12 13  2  0  0  0  0
 12 17  1  0  0  0  0
 13 14  1  0  0  0  0
 14 15  2  0  0  0  0
 15 16  1  0  0  0  0
 16 17  2  0  0  0  0
 17 18  1  0  0  0  0
 18 19  2  0  0  0  0
 18 20  2  0  0  0  0
 18 21  1  0  0  0  0
 22 23  2  0  0  0  0
 22 25  1  0  0  0  0
 23 24  1  0  0  0  0
 24 27  2  0  0  0  0
 25 26  2  0  0  0  0
 26 27  1  0  0  0  0
 26 30  1  0  0  0  0
 27 28  1  0  0  0  0
 28 29  2  0  0  0  0
 29 30  1  0  0  0  0
 30 31  1  0  0  0  0
 31 32  1  0  0  0  0
  2 33  1  0  0  0  0
  4 34  1  0  0  0  0
  4 35  1  0  0  0  0
  8 36  1  0  0  0  0
  9 37  1  0  0  0  0
 13 38  1  0  0  0  0
 15 39  1  0  0  0  0
 16 40  1  0  0  0  0
 21 41  1  0  0  0  0
 21 42  1  0  0  0  0
 21 43  1  0  0  0  0
 23 44  1  0  0  0  0
 24 45  1  0  0  0  0
 25 46  1  0  0  0  0
 28 47  1  0  0  0  0
 29 48  1  0  0  0  0
 31 49  1  0  0  0  0
 31 50  1  0  0  0  0
 32 51  1  0  0  0  0
 32 52  1  0  0  0  0
 32 53  1  0  0  0  0
M  END
> <ID>
52

> <IC50[uM]>
0.024

$$$$
52
  -OEChem-05192314313D
 Structure written by MMmdl.
 53 57  0     1  0  0  0  0  0999 V2000
   93.3114   49.8130  267.6412 C   0  0  0  0  0  0  0  0  0  0  0  0
   92.5675   47.3461  266.4704 C   0  0  0  0  0  0  0  0  0  0  0  0
   91.6140   48.3391  266.6758 C   0  0  0  0  0  0  0  0  0  0  0  0
   91.9831   49.5402  267.2762 C   0  0  0  0  0  0  0  0  0  0  0  0
   93.8959   47.5397  266.9028 C   0  0  0  0  0  0  0  0  0  0  0  0
   94.2808   48.7816  267.4948 C   0  0  0  0  0  0  0  0  0  0  0  0
   95.5663   48.9631  267.9272 N   0  0  0  0  0  0  0  0  0  0  0  0
   96.4496   47.9536  267.7395 C   0  0  0  0  0  0  0  0  0  0  0  0
   96.0619   46.7444  267.1779 C   0  0  0  0  0  0  0  0  0  0  0  0
   94.7952   46.5297  266.7538 N   0  0  0  0  0  0  0  0  0  0  0  0
   90.2754   48.1313  266.3198 N   0  0  0  0  0  0  0  0  0  0  0  0
   89.7170   47.3507  265.2914 C   0  0  0  0  0  0  0  0  0  0  0  0
   90.4214   47.1275  264.1002 C   0  0  0  0  0  0  0  0  0  0  0  0
   89.9190   46.4350  263.0469 N   0  0  0  0  0  0  0  0  0  0  0  0
   88.6628   45.9396  263.1653 C   0  0  0  0  0  0  0  0  0  0  0  0
   87.8883   46.0973  264.3134 C   0  0  0  0  0  0  0  0  0  0  0  0
   88.4249   46.8053  265.3978 C   0  0  3  0  0  0  0  0  0  0  0  0
   87.4805   46.8913  266.9255 S   0  0  0  0  0  0  0  0  0  0  0  0
   86.1396   46.3665  266.6677 O   0  0  0  0  0  0  0  0  0  0  0  0
   87.6492   48.2417  267.4792 O   0  0  0  0  0  0  0  0  0  0  0  0
   88.3838   45.6765  268.0465 C   0  0  0  0  0  0  0  0  0  0  0  0
   93.6501   51.1190  268.2585 C   0  0  0  0  0  0  0  0  0  0  0  0
   94.6211   51.9736  267.7509 C   0  0  0  0  0  0  0  0  0  0  0  0
   94.8963   53.2015  268.3556 C   0  0  0  0  0  0  0  0  0  0  0  0
   92.9588   51.4516  269.4041 C   0  0  0  0  0  0  0  0  0  0  0  0
   93.2230   52.6641  270.0467 C   0  0  0  0  0  0  0  0  0  0  0  0
   94.1745   53.5756  269.5049 C   0  0  0  0  0  0  0  0  0  0  0  0
   94.1617   54.7286  270.3490 C   0  0  0  0  0  0  0  0  0  0  0  0
   93.2720   54.4750  271.3665 C   0  0  0  0  0  0  0  0  0  0  0  0
   92.7072   53.2287  271.2146 N   0  0  0  0  0  0  0  0  0  0  0  0
   91.8097   52.6164  272.2119 C   0  0  0  0  0  0  0  0  0  0  0  0
   90.7891   51.6506  271.6176 C   0  0  0  0  0  0  0  0  0  0  0  0
   92.2895   46.4255  265.9789 H   0  0  0  0  0  0  0  0  0  0  0  0
   91.2244   50.2848  267.4670 H   0  0  0  0  0  0  0  0  0  0  0  0
   97.4795   48.0924  268.0335 H   0  0  0  0  0  0  0  0  0  0  0  0
   96.7910   45.9541  267.0769 H   0  0  0  0  0  0  0  0  0  0  0  0
   91.4203   47.5294  264.0160 H   0  0  0  0  0  0  0  0  0  0  0  0
   88.2425   45.3974  262.3312 H   0  0  0  0  0  0  0  0  0  0  0  0
   86.8929   45.6816  264.3665 H   0  0  0  0  0  0  0  0  0  0  0  0
   87.9725   47.7428  265.0422 H   0  0  0  0  0  0  0  0  0  0  0  0
   87.8875   45.6435  269.0276 H   0  0  0  0  0  0  0  0  0  0  0  0
   88.3648   44.6749  267.5923 H   0  0  0  0  0  0  0  0  0  0  0  0
   89.4269   46.0015  268.1741 H   0  0  0  0  0  0  0  0  0  0  0  0
   95.1743   51.6819  266.8704 H   0  0  0  0  0  0  0  0  0  0  0  0
   95.6526   53.8555  267.9472 H   0  0  0  0  0  0  0  0  0  0  0  0
   92.2156   50.7774  269.8035 H   0  0  0  0  0  0  0  0  0  0  0  0
   94.7416   55.6296  270.2134 H   0  0  0  0  0  0  0  0  0  0  0  0
   93.0477   55.1582  272.1723 H   0  0  0  0  0  0  0  0  0  0  0  0
   92.4247   52.0657  272.9388 H   0  0  0  0  0  0  0  0  0  0  0  0
   91.2651   53.4211  272.7275 H   0  0  0  0  0  0  0  0  0  0  0  0
   90.1614   51.2390  272.4218 H   0  0  0  0  0  0  0  0  0  0  0  0
   90.1552   52.1859  270.8954 H   0  0  0  0  0  0  0  0  0  0  0  0
   91.3148   50.8304  271.1068 H   0  0  0  0  0  0  0  0  0  0  0  0
  1  4  2  0  0  0  0
  1  6  1  0  0  0  0
  1 22  1  0  0  0  0
  2  3  2  0  0  0  0
  2  5  1  0  0  0  0
  3  4  1  0  0  0  0
  3 11  1  0  0  0  0
  5  6  2  0  0  0  0
  5 10  1  0  0  0  0
  6  7  1  0  0  0  0
  7  8  2  0  0  0  0
  8  9  1  0  0  0  0
  9 10  2  0  0  0  0
 11 12  2  0  0  0  0
 12 13  1  0  0  0  0
 12 17  1  0  0  0  0
 13 14  2  0  0  0  0
 14 15  1  0  0  0  0
 15 16  2  0  0  0  0
 16 17  1  0  0  0  0
 17 18  1  0  0  0  0
 18 19  2  0  0  0  0
 18 20  2  0  0  0  0
 18 21  1  0  0  0  0
 22 23  2  0  0  0  0
 22 25  1  0  0  0  0
 23 24  1  0  0  0  0
 24 27  2  0  0  0  0
 25 26  2  0  0  0  0
 26 27  1  0  0  0  0
 26 30  1  0  0  0  0
 27 28  1  0  0  0  0
 28 29  2  0  0  0  0
 29 30  1  0  0  0  0
 30 31  1  0  0  0  0
 31 32  1  0  0  0  0
  2 33  1  0  0  0  0
  4 34  1  0  0  0  0
  8 35  1  0  0  0  0
  9 36  1  0  0  0  0
 13 37  1  0  0  0  0
 15 38  1  0  0  0  0
 16 39  1  0  0  0  0
 17 40  1  0  0  0  0
 21 41  1  0  0  0  0
 21 42  1  0  0  0  0
 21 43  1  0  0  0  0
 23 44  1  0  0  0  0
 24 45  1  0  0  0  0
 25 46  1  0  0  0  0
 28 47  1  0  0  0  0
 29 48  1  0  0  0  0
 31 49  1  0  0  0  0
 31 50  1  0  0  0  0
 32 51  1  0  0  0  0
 32 52  1  0  0  0  0
 32 53  1  0  0  0  0
M  END
> <ID>
52

> <IC50[uM]>
0.024

$$$$
52
  -OEChem-05192314313D
 Structure written by MMmdl.
 53 57  0     0  0  0  0  0  0999 V2000
   93.3114   49.8130  267.6412 C   0  0  0  0  0  0  0  0  0  0  0  0
   92.5675   47.3461  266.4704 C   0  0  0  0  0  0  0  0  0  0  0  0
   91.6140   48.3391  266.6758 C   0  0  0  0  0  0  0  0  0  0  0  0
   91.9831   49.5402  267.2762 C   0  0  0  0  0  0  0  0  0  0  0  0
   93.8959   47.5397  266.9028 C   0  0  0  0  0  0  0  0  0  0  0  0
   94.2808   48.7816  267.4948 C   0  0  0  0  0  0  0  0  0  0  0  0
   95.5663   48.9631  267.9272 N   0  0  0  0  0  0  0  0  0  0  0  0
   96.4496   47.9536  267.7395 C   0  0  0  0  0  0  0  0  0  0  0  0
   96.0619   46.7444  267.1779 C   0  0  0  0  0  0  0  0  0  0  0  0
   94.7952   46.5297  266.7538 N   0  0  0  0  0  0  0  0  0  0  0  0
   90.2754   48.1313  266.3198 N   0  0  0  0  0  0  0  0  0  0  0  0
   89.7170   47.3507  265.2914 C   0  0  0  0  0  0  0  0  0  0  0  0
   90.4214   47.1275  264.1002 C   0  0  0  0  0  0  0  0  0  0  0  0
   89.9190   46.4350  263.0469 N   0  0  0  0  0  0  0  0  0  0  0  0
   88.6628   45.9396  263.1653 C   0  0  0  0  0  0  0  0  0  0  0  0
   87.8883   46.0973  264.3134 C   0  0  0  0  0  0  0  0  0  0  0  0
   88.4249   46.8053  265.3978 C   0  0  0  0  0  0  0  0  0  0  0  0
   87.4805   46.8913  266.9255 S   0  0  0  0  0  0  0  0  0  0  0  0
   86.1396   46.3665  266.6677 O   0  0  0  0  0  0  0  0  0  0  0  0
   87.6492   48.2417  267.4792 O   0  0  0  0  0  0  0  0  0  0  0  0
   88.3838   45.6765  268.0465 C   0  0  0  0  0  0  0  0  0  0  0  0
   93.6501   51.1190  268.2585 C   0  0  0  0  0  0  0  0  0  0  0  0
   94.6211   51.9736  267.7509 C   0  0  0  0  0  0  0  0  0  0  0  0
   94.8963   53.2015  268.3556 C   0  0  0  0  0  0  0  0  0  0  0  0
   92.9588   51.4516  269.4041 C   0  0  0  0  0  0  0  0  0  0  0  0
   93.2230   52.6641  270.0467 C   0  0  0  0  0  0  0  0  0  0  0  0
   94.1745   53.5756  269.5049 C   0  0  0  0  0  0  0  0  0  0  0  0
   94.1617   54.7286  270.3490 C   0  0  0  0  0  0  0  0  0  0  0  0
   93.2720   54.4750  271.3665 C   0  0  0  0  0  0  0  0  0  0  0  0
   92.7072   53.2287  271.2146 N   0  0  0  0  0  0  0  0  0  0  0  0
   91.8097   52.6164  272.2119 C   0  0  0  0  0  0  0  0  0  0  0  0
   90.7891   51.6506  271.6176 C   0  0  0  0  0  0  0  0  0  0  0  0
   92.2895   46.4255  265.9789 H   0  0  0  0  0  0  0  0  0  0  0  0
   91.2244   50.2848  267.4670 H   0  0  0  0  0  0  0  0  0  0  0  0
   97.4795   48.0924  268.0335 H   0  0  0  0  0  0  0  0  0  0  0  0
   96.7910   45.9541  267.0769 H   0  0  0  0  0  0  0  0  0  0  0  0
   91.4203   47.5294  264.0160 H   0  0  0  0  0  0  0  0  0  0  0  0
   88.0824   46.3868  262.3448 H   0  0  0  0  0  0  0  0  0  0  0  0
   88.7488   44.8548  263.0048 H   0  0  0  0  0  0  0  0  0  0  0  0
   86.8929   45.6816  264.3665 H   0  0  0  0  0  0  0  0  0  0  0  0
   87.8875   45.6435  269.0276 H   0  0  0  0  0  0  0  0  0  0  0  0
   88.3648   44.6749  267.5923 H   0  0  0  0  0  0  0  0  0  0  0  0
   89.4269   46.0015  268.1741 H   0  0  0  0  0  0  0  0  0  0  0  0
   95.1743   51.6819  266.8704 H   0  0  0  0  0  0  0  0  0  0  0  0
   95.6526   53.8555  267.9472 H   0  0  0  0  0  0  0  0  0  0  0  0
   92.2156   50.7774  269.8035 H   0  0  0  0  0  0  0  0  0  0  0  0
   94.7416   55.6296  270.2134 H   0  0  0  0  0  0  0  0  0  0  0  0
   93.0477   55.1582  272.1723 H   0  0  0  0  0  0  0  0  0  0  0  0
   92.4247   52.0657  272.9388 H   0  0  0  0  0  0  0  0  0  0  0  0
   91.2651   53.4211  272.7275 H   0  0  0  0  0  0  0  0  0  0  0  0
   90.1614   51.2390  272.4218 H   0  0  0  0  0  0  0  0  0  0  0  0
   90.1552   52.1859  270.8954 H   0  0  0  0  0  0  0  0  0  0  0  0
   91.3148   50.8304  271.1068 H   0  0  0  0  0  0  0  0  0  0  0  0
  1  4  2  0  0  0  0
  1  6  1  0  0  0  0
  1 22  1  0  0  0  0
  2  3  2  0  0  0  0
  2  5  1  0  0  0  0
  3  4  1  0  0  0  0
  3 11  1  0  0  0  0
  5  6  2  0  0  0  0
  5 10  1  0  0  0  0
  6  7  1  0  0  0  0
  7  8  2  0  0  0  0
  8  9  1  0  0  0  0
  9 10  2  0  0  0  0
 11 12  2  0  0  0  0
 12 13  1  0  0  0  0
 12 17  1  0  0  0  0
 13 14  2  0  0  0  0
 14 15  1  0  0  0  0
 15 16  1  0  0  0  0
 16 17  2  0  0  0  0
 17 18  1  0  0  0  0
 18 19  2  0  0  0  0
 18 20  2  0  0  0  0
 18 21  1  0  0  0  0
 22 23  2  0  0  0  0
 22 25  1  0  0  0  0
 23 24  1  0  0  0  0
 24 27  2  0  0  0  0
 25 26  2  0  0  0  0
 26 27  1  0  0  0  0
 26 30  1  0  0  0  0
 27 28  1  0  0  0  0
 28 29  2  0  0  0  0
 29 30  1  0  0  0  0
 30 31  1  0  0  0  0
 31 32  1  0  0  0  0
  2 33  1  0  0  0  0
  4 34  1  0  0  0  0
  8 35  1  0  0  0  0
  9 36  1  0  0  0  0
 13 37  1  0  0  0  0
 15 38  1  0  0  0  0
 15 39  1  0  0  0  0
 16 40  1  0  0  0  0
 21 41  1  0  0  0  0
 21 42  1  0  0  0  0
 21 43  1  0  0  0  0
 23 44  1  0  0  0  0
 24 45  1  0  0  0  0
 25 46  1  0  0  0  0
 28 47  1  0  0  0  0
 29 48  1  0  0  0  0
 31 49  1  0  0  0  0
 31 50  1  0  0  0  0
 32 51  1  0  0  0  0
 32 52  1  0  0  0  0
 32 53  1  0  0  0  0
M  END
> <ID>
52

> <IC50[uM]>
0.024

$$$$
52
  -OEChem-05192314313D
 Structure written by MMmdl.
 53 57  0     0  0  0  0  0  0999 V2000
   93.3114   49.8130  267.6412 C   0  0  0  0  0  0  0  0  0  0  0  0
   92.5675   47.3461  266.4704 C   0  0  0  0  0  0  0  0  0  0  0  0
   91.6140   48.3391  266.6758 C   0  0  0  0  0  0  0  0  0  0  0  0
   91.9831   49.5402  267.2762 C   0  0  0  0  0  0  0  0  0  0  0  0
   93.8959   47.5397  266.9028 C   0  0  0  0  0  0  0  0  0  0  0  0
   94.2808   48.7816  267.4948 C   0  0  0  0  0  0  0  0  0  0  0  0
   95.5663   48.9631  267.9272 N   0  0  0  0  0  0  0  0  0  0  0  0
   96.4496   47.9536  267.7395 C   0  0  0  0  0  0  0  0  0  0  0  0
   96.0619   46.7444  267.1779 C   0  0  0  0  0  0  0  0  0  0  0  0
   94.7952   46.5297  266.7538 N   0  0  0  0  0  0  0  0  0  0  0  0
   90.2754   48.1313  266.3198 N   0  0  0  0  0  0  0  0  0  0  0  0
   89.7170   47.3507  265.2914 C   0  0  0  0  0  0  0  0  0  0  0  0
   90.4214   47.1275  264.1002 C   0  0  0  0  0  0  0  0  0  0  0  0
   89.9190   46.4350  263.0469 N   0  0  0  0  0  0  0  0  0  0  0  0
   88.6628   45.9396  263.1653 C   0  0  0  0  0  0  0  0  0  0  0  0
   87.8883   46.0973  264.3134 C   0  0  0  0  0  0  0  0  0  0  0  0
   88.4249   46.8053  265.3978 C   0  0  0  0  0  0  0  0  0  0  0  0
   87.4805   46.8913  266.9255 S   0  0  0  0  0  0  0  0  0  0  0  0
   86.1396   46.3665  266.6677 O   0  0  0  0  0  0  0  0  0  0  0  0
   87.6492   48.2417  267.4792 O   0  0  0  0  0  0  0  0  0  0  0  0
   88.3838   45.6765  268.0465 C   0  0  0  0  0  0  0  0  0  0  0  0
   93.6501   51.1190  268.2585 C   0  0  0  0  0  0  0  0  0  0  0  0
   94.6211   51.9736  267.7509 C   0  0  0  0  0  0  0  0  0  0  0  0
   94.8963   53.2015  268.3556 C   0  0  0  0  0  0  0  0  0  0  0  0
   92.9588   51.4516  269.4041 C   0  0  0  0  0  0  0  0  0  0  0  0
   93.2230   52.6641  270.0467 C   0  0  0  0  0  0  0  0  0  0  0  0
   94.1745   53.5756  269.5049 C   0  0  0  0  0  0  0  0  0  0  0  0
   94.1617   54.7286  270.3490 C   0  0  0  0  0  0  0  0  0  0  0  0
   93.2720   54.4750  271.3665 C   0  0  0  0  0  0  0  0  0  0  0  0
   92.7072   53.2287  271.2146 N   0  0  0  0  0  0  0  0  0  0  0  0
   91.8097   52.6164  272.2119 C   0  0  0  0  0  0  0  0  0  0  0  0
   90.7891   51.6506  271.6176 C   0  0  0  0  0  0  0  0  0  0  0  0
   92.2895   46.4255  265.9789 H   0  0  0  0  0  0  0  0  0  0  0  0
   91.2244   50.2848  267.4670 H   0  0  0  0  0  0  0  0  0  0  0  0
   97.4795   48.0924  268.0335 H   0  0  0  0  0  0  0  0  0  0  0  0
   96.7910   45.9541  267.0769 H   0  0  0  0  0  0  0  0  0  0  0  0
   90.6741   48.1245  263.7102 H   0  0  0  0  0  0  0  0  0  0  0  0
   91.3435   46.6031  264.3911 H   0  0  0  0  0  0  0  0  0  0  0  0
   88.2425   45.3974  262.3312 H   0  0  0  0  0  0  0  0  0  0  0  0
   86.8929   45.6816  264.3665 H   0  0  0  0  0  0  0  0  0  0  0  0
   87.8875   45.6435  269.0276 H   0  0  0  0  0  0  0  0  0  0  0  0
   88.3648   44.6749  267.5923 H   0  0  0  0  0  0  0  0  0  0  0  0
   89.4269   46.0015  268.1741 H   0  0  0  0  0  0  0  0  0  0  0  0
   95.1743   51.6819  266.8704 H   0  0  0  0  0  0  0  0  0  0  0  0
   95.6526   53.8555  267.9472 H   0  0  0  0  0  0  0  0  0  0  0  0
   92.2156   50.7774  269.8035 H   0  0  0  0  0  0  0  0  0  0  0  0
   94.7416   55.6296  270.2134 H   0  0  0  0  0  0  0  0  0  0  0  0
   93.0477   55.1582  272.1723 H   0  0  0  0  0  0  0  0  0  0  0  0
   92.4247   52.0657  272.9388 H   0  0  0  0  0  0  0  0  0  0  0  0
   91.2651   53.4211  272.7275 H   0  0  0  0  0  0  0  0  0  0  0  0
   90.1614   51.2390  272.4218 H   0  0  0  0  0  0  0  0  0  0  0  0
   90.1552   52.1859  270.8954 H   0  0  0  0  0  0  0  0  0  0  0  0
   91.3148   50.8304  271.1068 H   0  0  0  0  0  0  0  0  0  0  0  0
  1  4  2  0  0  0  0
  1  6  1  0  0  0  0
  1 22  1  0  0  0  0
  2  3  2  0  0  0  0
  2  5  1  0  0  0  0
  3  4  1  0  0  0  0
  3 11  1  0  0  0  0
  5  6  2  0  0  0  0
  5 10  1  0  0  0  0
  6  7  1  0  0  0  0
  7  8  2  0  0  0  0
  8  9  1  0  0  0  0
  9 10  2  0  0  0  0
 11 12  2  0  0  0  0
 12 13  1  0  0  0  0
 12 17  1  0  0  0  0
 13 14  1  0  0  0  0
 14 15  2  0  0  0  0
 15 16  1  0  0  0  0
 16 17  2  0  0  0  0
 17 18  1  0  0  0  0
 18 19  2  0  0  0  0
 18 20  2  0  0  0  0
 18 21  1  0  0  0  0
 22 23  2  0  0  0  0
 22 25  1  0  0  0  0
 23 24  1  0  0  0  0
 24 27  2  0  0  0  0
 25 26  2  0  0  0  0
 26 27  1  0  0  0  0
 26 30  1  0  0  0  0
 27 28  1  0  0  0  0
 28 29  2  0  0  0  0
 29 30  1  0  0  0  0
 30 31  1  0  0  0  0
 31 32  1  0  0  0  0
  2 33  1  0  0  0  0
  4 34  1  0  0  0  0
  8 35  1  0  0  0  0
  9 36  1  0  0  0  0
 13 37  1  0  0  0  0
 13 38  1  0  0  0  0
 15 39  1  0  0  0  0
 16 40  1  0  0  0  0
 21 41  1  0  0  0  0
 21 42  1  0  0  0  0
 21 43  1  0  0  0  0
 23 44  1  0  0  0  0
 24 45  1  0  0  0  0
 25 46  1  0  0  0  0
 28 47  1  0  0  0  0
 29 48  1  0  0  0  0
 31 49  1  0  0  0  0
 31 50  1  0  0  0  0
 32 51  1  0  0  0  0
 32 52  1  0  0  0  0
 32 53  1  0  0  0  0
M  END
> <ID>
52

> <IC50[uM]>
0.024

$$$$
52
  -OEChem-05192314313D
 Structure written by MMmdl.
 53 57  0     1  0  0  0  0  0999 V2000
   93.3114   49.8130  267.6412 C   0  0  0  0  0  0  0  0  0  0  0  0
   92.5675   47.3461  266.4704 C   0  0  0  0  0  0  0  0  0  0  0  0
   91.6140   48.3391  266.6758 C   0  0  0  0  0  0  0  0  0  0  0  0
   91.9831   49.5402  267.2762 C   0  0  0  0  0  0  0  0  0  0  0  0
   93.8959   47.5397  266.9028 C   0  0  0  0  0  0  0  0  0  0  0  0
   94.2808   48.7816  267.4948 C   0  0  3  0  0  0  0  0  0  0  0  0
   95.5663   48.9631  267.9272 N   0  0  0  0  0  0  0  0  0  0  0  0
   96.4496   47.9536  267.7395 C   0  0  0  0  0  0  0  0  0  0  0  0
   96.0619   46.7444  267.1779 C   0  0  0  0  0  0  0  0  0  0  0  0
   94.7952   46.5297  266.7538 N   0  0  0  0  0  0  0  0  0  0  0  0
   90.2754   48.1313  266.3198 N   0  0  0  0  0  0  0  0  0  0  0  0
   89.7170   47.3507  265.2914 C   0  0  0  0  0  0  0  0  0  0  0  0
   90.4214   47.1275  264.1002 C   0  0  0  0  0  0  0  0  0  0  0  0
   89.9190   46.4350  263.0469 N   0  0  0  0  0  0  0  0  0  0  0  0
   88.6628   45.9396  263.1653 C   0  0  0  0  0  0  0  0  0  0  0  0
   87.8883   46.0973  264.3134 C   0  0  0  0  0  0  0  0  0  0  0  0
   88.4249   46.8053  265.3978 C   0  0  0  0  0  0  0  0  0  0  0  0
   87.4805   46.8913  266.9255 S   0  0  0  0  0  0  0  0  0  0  0  0
   86.1396   46.3665  266.6677 O   0  0  0  0  0  0  0  0  0  0  0  0
   87.6492   48.2417  267.4792 O   0  0  0  0  0  0  0  0  0  0  0  0
   88.3838   45.6765  268.0465 C   0  0  0  0  0  0  0  0  0  0  0  0
   93.6501   51.1190  268.2585 C   0  0  0  0  0  0  0  0  0  0  0  0
   94.6211   51.9736  267.7509 C   0  0  0  0  0  0  0  0  0  0  0  0
   94.8963   53.2015  268.3556 C   0  0  0  0  0  0  0  0  0  0  0  0
   92.9588   51.4516  269.4041 C   0  0  0  0  0  0  0  0  0  0  0  0
   93.2230   52.6641  270.0467 C   0  0  0  0  0  0  0  0  0  0  0  0
   94.1745   53.5756  269.5049 C   0  0  0  0  0  0  0  0  0  0  0  0
   94.1617   54.7286  270.3490 C   0  0  0  0  0  0  0  0  0  0  0  0
   93.2720   54.4750  271.3665 C   0  0  0  0  0  0  0  0  0  0  0  0
   92.7072   53.2287  271.2146 N   0  0  0  0  0  0  0  0  0  0  0  0
   91.8097   52.6164  272.2119 C   0  0  0  0  0  0  0  0  0  0  0  0
   90.7891   51.6506  271.6176 C   0  0  0  0  0  0  0  0  0  0  0  0
   92.2895   46.4255  265.9789 H   0  0  0  0  0  0  0  0  0  0  0  0
   91.2244   50.2848  267.4670 H   0  0  0  0  0  0  0  0  0  0  0  0
   94.5542   49.1737  266.5041 H   0  0  0  0  0  0  0  0  0  0  0  0
   97.4795   48.0924  268.0335 H   0  0  0  0  0  0  0  0  0  0  0  0
   96.7910   45.9541  267.0769 H   0  0  0  0  0  0  0  0  0  0  0  0
   91.4203   47.5294  264.0160 H   0  0  0  0  0  0  0  0  0  0  0  0
   88.2425   45.3974  262.3312 H   0  0  0  0  0  0  0  0  0  0  0  0
   86.8929   45.6816  264.3665 H   0  0  0  0  0  0  0  0  0  0  0  0
   87.8875   45.6435  269.0276 H   0  0  0  0  0  0  0  0  0  0  0  0
   88.3648   44.6749  267.5923 H   0  0  0  0  0  0  0  0  0  0  0  0
   89.4269   46.0015  268.1741 H   0  0  0  0  0  0  0  0  0  0  0  0
   95.1743   51.6819  266.8704 H   0  0  0  0  0  0  0  0  0  0  0  0
   95.6526   53.8555  267.9472 H   0  0  0  0  0  0  0  0  0  0  0  0
   92.2156   50.7774  269.8035 H   0  0  0  0  0  0  0  0  0  0  0  0
   94.7416   55.6296  270.2134 H   0  0  0  0  0  0  0  0  0  0  0  0
   93.0477   55.1582  272.1723 H   0  0  0  0  0  0  0  0  0  0  0  0
   92.4247   52.0657  272.9388 H   0  0  0  0  0  0  0  0  0  0  0  0
   91.2651   53.4211  272.7275 H   0  0  0  0  0  0  0  0  0  0  0  0
   90.1614   51.2390  272.4218 H   0  0  0  0  0  0  0  0  0  0  0  0
   90.1552   52.1859  270.8954 H   0  0  0  0  0  0  0  0  0  0  0  0
   91.3148   50.8304  271.1068 H   0  0  0  0  0  0  0  0  0  0  0  0
  1  4  2  0  0  0  0
  1  6  1  0  0  0  0
  1 22  1  0  0  0  0
  2  3  1  0  0  0  0
  2  5  2  0  0  0  0
  3  4  1  0  0  0  0
  3 11  2  3  0  0  0
  5  6  1  0  0  0  0
  5 10  1  0  0  0  0
  6  7  1  0  0  0  0
  7  8  2  0  0  0  0
  8  9  1  0  0  0  0
  9 10  2  0  0  0  0
 11 12  1  0  0  0  0
 12 13  2  0  0  0  0
 12 17  1  0  0  0  0
 13 14  1  0  0  0  0
 14 15  2  0  0  0  0
 15 16  1  0  0  0  0
 16 17  2  0  0  0  0
 17 18  1  0  0  0  0
 18 19  2  0  0  0  0
 18 20  2  0  0  0  0
 18 21  1  0  0  0  0
 22 23  2  0  0  0  0
 22 25  1  0  0  0  0
 23 24  1  0  0  0  0
 24 27  2  0  0  0  0
 25 26  2  0  0  0  0
 26 27  1  0  0  0  0
 26 30  1  0  0  0  0
 27 28  1  0  0  0  0
 28 29  2  0  0  0  0
 29 30  1  0  0  0  0
 30 31  1  0  0  0  0
 31 32  1  0  0  0  0
  2 33  1  0  0  0  0
  4 34  1  0  0  0  0
  6 35  1  0  0  0  0
  8 36  1  0  0  0  0
  9 37  1  0  0  0  0
 13 38  1  0  0  0  0
 15 39  1  0  0  0  0
 16 40  1  0  0  0  0
 21 41  1  0  0  0  0
 21 42  1  0  0  0  0
 21 43  1  0  0  0  0
 23 44  1  0  0  0  0
 24 45  1  0  0  0  0
 25 46  1  0  0  0  0
 28 47  1  0  0  0  0
 29 48  1  0  0  0  0
 31 49  1  0  0  0  0
 31 50  1  0  0  0  0
 32 51  1  0  0  0  0
 32 52  1  0  0  0  0
 32 53  1  0  0  0  0
M  END
> <ID>
52

> <IC50[uM]>
0.024

$$$$
52
  -OEChem-05192314313D
 Structure written by MMmdl.
 53 57  0     0  0  0  0  0  0999 V2000
   93.3114   49.8130  267.6412 C   0  0  0  0  0  0  0  0  0  0  0  0
   92.5675   47.3461  266.4704 C   0  0  0  0  0  0  0  0  0  0  0  0
   91.6140   48.3391  266.6758 C   0  0  0  0  0  0  0  0  0  0  0  0
   91.9831   49.5402  267.2762 C   0  0  0  0  0  0  0  0  0  0  0  0
   93.8959   47.5397  266.9028 C   0  0  0  0  0  0  0  0  0  0  0  0
   94.2808   48.7816  267.4948 C   0  0  0  0  0  0  0  0  0  0  0  0
   95.5663   48.9631  267.9272 N   0  0  0  0  0  0  0  0  0  0  0  0
   96.4496   47.9536  267.7395 C   0  0  0  0  0  0  0  0  0  0  0  0
   96.0619   46.7444  267.1779 C   0  0  0  0  0  0  0  0  0  0  0  0
   94.7952   46.5297  266.7538 N   0  0  0  0  0  0  0  0  0  0  0  0
   90.2754   48.1313  266.3198 N   0  0  0  0  0  0  0  0  0  0  0  0
   89.7170   47.3507  265.2914 C   0  0  0  0  0  0  0  0  0  0  0  0
   90.4214   47.1275  264.1002 C   0  0  0  0  0  0  0  0  0  0  0  0
   89.9190   46.4350  263.0469 N   0  0  0  0  0  0  0  0  0  0  0  0
   88.6628   45.9396  263.1653 C   0  0  0  0  0  0  0  0  0  0  0  0
   87.8883   46.0973  264.3134 C   0  0  0  0  0  0  0  0  0  0  0  0
   88.4249   46.8053  265.3978 C   0  0  0  0  0  0  0  0  0  0  0  0
   87.4805   46.8913  266.9255 S   0  0  0  0  0  0  0  0  0  0  0  0
   86.1396   46.3665  266.6677 O   0  0  0  0  0  0  0  0  0  0  0  0
   87.6492   48.2417  267.4792 O   0  0  0  0  0  0  0  0  0  0  0  0
   88.3838   45.6765  268.0465 C   0  0  0  0  0  0  0  0  0  0  0  0
   93.6501   51.1190  268.2585 C   0  0  0  0  0  0  0  0  0  0  0  0
   94.6211   51.9736  267.7509 C   0  0  0  0  0  0  0  0  0  0  0  0
   94.8963   53.2015  268.3556 C   0  0  0  0  0  0  0  0  0  0  0  0
   92.9588   51.4516  269.4041 C   0  0  0  0  0  0  0  0  0  0  0  0
   93.2230   52.6641  270.0467 C   0  0  0  0  0  0  0  0  0  0  0  0
   94.1745   53.5756  269.5049 C   0  0  0  0  0  0  0  0  0  0  0  0
   94.1617   54.7286  270.3490 C   0  0  0  0  0  0  0  0  0  0  0  0
   93.2720   54.4750  271.3665 C   0  0  0  0  0  0  0  0  0  0  0  0
   92.7072   53.2287  271.2146 N   0  0  0  0  0  0  0  0  0  0  0  0
   91.8097   52.6164  272.2119 C   0  0  0  0  0  0  0  0  0  0  0  0
   90.7891   51.6506  271.6176 C   0  0  0  0  0  0  0  0  0  0  0  0
   92.2895   46.4255  265.9789 H   0  0  0  0  0  0  0  0  0  0  0  0
   91.2244   50.2848  267.4670 H   0  0  0  0  0  0  0  0  0  0  0  0
   97.2457   48.3540  267.0946 H   0  0  0  0  0  0  0  0  0  0  0  0
   96.8647   47.7165  268.7302 H   0  0  0  0  0  0  0  0  0  0  0  0
   96.7910   45.9541  267.0769 H   0  0  0  0  0  0  0  0  0  0  0  0
   91.4203   47.5294  264.0160 H   0  0  0  0  0  0  0  0  0  0  0  0
   88.2425   45.3974  262.3312 H   0  0  0  0  0  0  0  0  0  0  0  0
   86.8929   45.6816  264.3665 H   0  0  0  0  0  0  0  0  0  0  0  0
   87.8875   45.6435  269.0276 H   0  0  0  0  0  0  0  0  0  0  0  0
   88.3648   44.6749  267.5923 H   0  0  0  0  0  0  0  0  0  0  0  0
   89.4269   46.0015  268.1741 H   0  0  0  0  0  0  0  0  0  0  0  0
   95.1743   51.6819  266.8704 H   0  0  0  0  0  0  0  0  0  0  0  0
   95.6526   53.8555  267.9472 H   0  0  0  0  0  0  0  0  0  0  0  0
   92.2156   50.7774  269.8035 H   0  0  0  0  0  0  0  0  0  0  0  0
   94.7416   55.6296  270.2134 H   0  0  0  0  0  0  0  0  0  0  0  0
   93.0477   55.1582  272.1723 H   0  0  0  0  0  0  0  0  0  0  0  0
   92.4247   52.0657  272.9388 H   0  0  0  0  0  0  0  0  0  0  0  0
   91.2651   53.4211  272.7275 H   0  0  0  0  0  0  0  0  0  0  0  0
   90.1614   51.2390  272.4218 H   0  0  0  0  0  0  0  0  0  0  0  0
   90.1552   52.1859  270.8954 H   0  0  0  0  0  0  0  0  0  0  0  0
   91.3148   50.8304  271.1068 H   0  0  0  0  0  0  0  0  0  0  0  0
  1  4  2  0  0  0  0
  1  6  1  0  0  0  0
  1 22  1  0  0  0  0
  2  3  1  0  0  0  0
  2  5  2  0  0  0  0
  3  4  1  0  0  0  0
  3 11  2  3  0  0  0
  5  6  1  0  0  0  0
  5 10  1  0  0  0  0
  6  7  2  0  0  0  0
  7  8  1  0  0  0  0
  8  9  1  0  0  0  0
  9 10  2  0  0  0  0
 11 12  1  0  0  0  0
 12 13  2  0  0  0  0
 12 17  1  0  0  0  0
 13 14  1  0  0  0  0
 14 15  2  0  0  0  0
 15 16  1  0  0  0  0
 16 17  2  0  0  0  0
 17 18  1  0  0  0  0
 18 19  2  0  0  0  0
 18 20  2  0  0  0  0
 18 21  1  0  0  0  0
 22 23  2  0  0  0  0
 22 25  1  0  0  0  0
 23 24  1  0  0  0  0
 24 27  2  0  0  0  0
 25 26  2  0  0  0  0
 26 27  1  0  0  0  0
 26 30  1  0  0  0  0
 27 28  1  0  0  0  0
 28 29  2  0  0  0  0
 29 30  1  0  0  0  0
 30 31  1  0  0  0  0
 31 32  1  0  0  0  0
  2 33  1  0  0  0  0
  4 34  1  0  0  0  0
  8 35  1  0  0  0  0
  8 36  1  0  0  0  0
  9 37  1  0  0  0  0
 13 38  1  0  0  0  0
 15 39  1  0  0  0  0
 16 40  1  0  0  0  0
 21 41  1  0  0  0  0
 21 42  1  0  0  0  0
 21 43  1  0  0  0  0
 23 44  1  0  0  0  0
 24 45  1  0  0  0  0
 25 46  1  0  0  0  0
 28 47  1  0  0  0  0
 29 48  1  0  0  0  0
 31 49  1  0  0  0  0
 31 50  1  0  0  0  0
 32 51  1  0  0  0  0
 32 52  1  0  0  0  0
 32 53  1  0  0  0  0
M  END
> <ID>
52

> <IC50[uM]>
0.024

$$$$
