47
  -OEChem-05192314313D
 Structure written by MMmdl.
 49 52  0     0  0  0  0  0  0999 V2000
   91.6083   48.3334  266.6744 C   0  0  0  0  0  0  0  0  0  0  0  0
   91.9770   49.5235  267.2704 C   0  0  0  0  0  0  0  0  0  0  0  0
   93.2888   49.7910  267.6682 C   0  0  0  0  0  0  0  0  0  0  0  0
   92.5616   47.3282  266.4823 C   0  0  0  0  0  0  0  0  0  0  0  0
   93.8964   47.5326  266.9181 C   0  0  0  0  0  0  0  0  0  0  0  0
   94.2747   48.7648  267.5031 C   0  0  0  0  0  0  0  0  0  0  0  0
   95.5582   48.9607  267.9334 N   0  0  0  0  0  0  0  0  0  0  0  0
   96.4450   47.9497  267.7524 C   0  0  0  0  0  0  0  0  0  0  0  0
   96.0650   46.7377  267.1987 C   0  0  0  0  0  0  0  0  0  0  0  0
   94.7919   46.5129  266.7751 N   0  0  0  0  0  0  0  0  0  0  0  0
   90.2641   48.1146  266.3110 N   0  0  0  0  0  0  0  0  0  0  0  0
   93.6036   51.0836  268.3078 C   0  0  0  0  0  0  0  0  0  0  0  0
   94.5822   51.9426  267.7946 C   0  0  0  0  0  0  0  0  0  0  0  0
   94.8311   53.1648  268.4135 C   0  0  0  0  0  0  0  0  0  0  0  0
   92.9139   51.4502  269.4609 C   0  0  0  0  0  0  0  0  0  0  0  0
   93.1683   52.6744  270.0993 C   0  0  0  0  0  0  0  0  0  0  0  0
   94.1199   53.5419  269.5356 C   0  0  0  0  0  0  0  0  0  0  0  0
   89.7151   47.3380  265.2859 C   0  0  0  0  0  0  0  0  0  0  0  0
   90.4155   47.1252  264.0962 C   0  0  0  0  0  0  0  0  0  0  0  0
   89.9070   46.4429  263.0387 N   0  0  0  0  0  0  0  0  0  0  0  0
   88.6553   45.9399  263.1634 C   0  0  0  0  0  0  0  0  0  0  0  0
   87.8846   46.0881  264.3216 C   0  0  0  0  0  0  0  0  0  0  0  0
   88.4235   46.7973  265.3979 C   0  0  0  0  0  0  0  0  0  0  0  0
   87.4819   46.9001  266.9260 S   0  0  0  0  0  0  0  0  0  0  0  0
   86.1337   46.3858  266.6708 O   0  0  0  0  0  0  0  0  0  0  0  0
   87.6636   48.2432  267.4756 O   0  0  0  0  0  0  0  0  0  0  0  0
   88.3745   45.6750  268.0367 C   0  0  0  0  0  0  0  0  0  0  0  0
   94.3537   54.9171  270.1798 C   0  0  0  0  0  0  0  0  0  0  0  0
   93.3263   55.3509  271.2282 C   0  0  0  0  0  0  0  0  0  0  0  0
   91.2211   50.2770  267.4353 H   0  0  0  0  0  0  0  0  0  0  0  0
   92.2830   46.4006  266.0044 H   0  0  0  0  0  0  0  0  0  0  0  0
   97.4739   48.0935  268.0476 H   0  0  0  0  0  0  0  0  0  0  0  0
   96.7985   45.9511  267.1009 H   0  0  0  0  0  0  0  0  0  0  0  0
   89.5939   48.5926  266.8788 H   0  0  0  0  0  0  0  0  0  0  0  0
   95.1447   51.6573  266.9179 H   0  0  0  0  0  0  0  0  0  0  0  0
   95.5870   53.8237  268.0125 H   0  0  0  0  0  0  0  0  0  0  0  0
   92.1712   50.7817  269.8707 H   0  0  0  0  0  0  0  0  0  0  0  0
   92.6440   52.9439  271.0042 H   0  0  0  0  0  0  0  0  0  0  0  0
   91.4153   47.5250  264.0133 H   0  0  0  0  0  0  0  0  0  0  0  0
   88.2325   45.3991  262.3296 H   0  0  0  0  0  0  0  0  0  0  0  0
   86.8936   45.6631  264.3824 H   0  0  0  0  0  0  0  0  0  0  0  0
   87.8835   45.6461  269.0207 H   0  0  0  0  0  0  0  0  0  0  0  0
   88.3406   44.6746  267.5807 H   0  0  0  0  0  0  0  0  0  0  0  0
   89.4222   45.9869  268.1589 H   0  0  0  0  0  0  0  0  0  0  0  0
   95.3412   54.8983  270.6641 H   0  0  0  0  0  0  0  0  0  0  0  0
   94.3533   55.6691  269.3770 H   0  0  0  0  0  0  0  0  0  0  0  0
   93.5952   56.3442  271.6168 H   0  0  0  0  0  0  0  0  0  0  0  0
   92.3286   55.3954  270.7672 H   0  0  0  0  0  0  0  0  0  0  0  0
   93.3165   54.6246  272.0542 H   0  0  0  0  0  0  0  0  0  0  0  0
  1  2  2  0  0  0  0
  1  4  1  0  0  0  0
  1 11  1  0  0  0  0
  2  3  1  0  0  0  0
  3  6  2  0  0  0  0
  3 12  1  0  0  0  0
  4  5  2  0  0  0  0
  5  6  1  0  0  0  0
  5 10  1  0  0  0  0
  6  7  1  0  0  0  0
  7  8  2  0  0  0  0
  8  9  1  0  0  0  0
  9 10  2  0  0  0  0
 11 18  1  0  0  0  0
 12 13  2  0  0  0  0
 12 15  1  0  0  0  0
 13 14  1  0  0  0  0
 14 17  2  0  0  0  0
 15 16  2  0  0  0  0
 16 17  1  0  0  0  0
 17 28  1  0  0  0  0
 18 19  2  0  0  0  0
 18 23  1  0  0  0  0
 19 20  1  0  0  0  0
 20 21  2  0  0  0  0
 21 22  1  0  0  0  0
 22 23  2  0  0  0  0
 23 24  1  0  0  0  0
 24 25  2  0  0  0  0
 24 26  2  0  0  0  0
 24 27  1  0  0  0  0
 28 29  1  0  0  0  0
  2 30  1  0  0  0  0
  4 31  1  0  0  0  0
  8 32  1  0  0  0  0
  9 33  1  0  0  0  0
 11 34  1  0  0  0  0
 13 35  1  0  0  0  0
 14 36  1  0  0  0  0
 15 37  1  0  0  0  0
 16 38  1  0  0  0  0
 19 39  1  0  0  0  0
 21 40  1  0  0  0  0
 22 41  1  0  0  0  0
 27 42  1  0  0  0  0
 27 43  1  0  0  0  0
 27 44  1  0  0  0  0
 28 45  1  0  0  0  0
 28 46  1  0  0  0  0
 29 47  1  0  0  0  0
 29 48  1  0  0  0  0
 29 49  1  0  0  0  0
M  END
> <ID>
47

> <IC50[uM]>
0.779

$$$$
47
  -OEChem-05192314313D
 Structure written by MMmdl.
 49 52  0     0  0  0  0  0  0999 V2000
   91.6083   48.3334  266.6744 C   0  0  0  0  0  0  0  0  0  0  0  0
   91.9770   49.5235  267.2704 C   0  0  0  0  0  0  0  0  0  0  0  0
   93.2888   49.7910  267.6682 C   0  0  0  0  0  0  0  0  0  0  0  0
   92.5616   47.3282  266.4823 C   0  0  0  0  0  0  0  0  0  0  0  0
   93.8964   47.5326  266.9181 C   0  0  0  0  0  0  0  0  0  0  0  0
   94.2747   48.7648  267.5031 C   0  0  0  0  0  0  0  0  0  0  0  0
   95.5582   48.9607  267.9334 N   0  0  0  0  0  0  0  0  0  0  0  0
   96.4450   47.9497  267.7524 C   0  0  0  0  0  0  0  0  0  0  0  0
   96.0650   46.7377  267.1987 C   0  0  0  0  0  0  0  0  0  0  0  0
   94.7919   46.5129  266.7751 N   0  0  0  0  0  0  0  0  0  0  0  0
   90.2641   48.1146  266.3110 N   0  0  0  0  0  0  0  0  0  0  0  0
   93.6036   51.0836  268.3078 C   0  0  0  0  0  0  0  0  0  0  0  0
   94.5822   51.9426  267.7946 C   0  0  0  0  0  0  0  0  0  0  0  0
   94.8311   53.1648  268.4135 C   0  0  0  0  0  0  0  0  0  0  0  0
   92.9139   51.4502  269.4609 C   0  0  0  0  0  0  0  0  0  0  0  0
   93.1683   52.6744  270.0993 C   0  0  0  0  0  0  0  0  0  0  0  0
   94.1199   53.5419  269.5356 C   0  0  0  0  0  0  0  0  0  0  0  0
   89.7151   47.3380  265.2859 C   0  0  0  0  0  0  0  0  0  0  0  0
   90.4155   47.1252  264.0962 C   0  0  0  0  0  0  0  0  0  0  0  0
   89.9070   46.4429  263.0387 N   0  0  0  0  0  0  0  0  0  0  0  0
   88.6553   45.9399  263.1634 C   0  0  0  0  0  0  0  0  0  0  0  0
   87.8846   46.0881  264.3216 C   0  0  0  0  0  0  0  0  0  0  0  0
   88.4235   46.7973  265.3979 C   0  0  0  0  0  0  0  0  0  0  0  0
   87.4819   46.9001  266.9260 S   0  0  0  0  0  0  0  0  0  0  0  0
   86.1337   46.3858  266.6708 O   0  0  0  0  0  0  0  0  0  0  0  0
   87.6636   48.2432  267.4756 O   0  0  0  0  0  0  0  0  0  0  0  0
   88.3745   45.6750  268.0367 C   0  0  0  0  0  0  0  0  0  0  0  0
   94.3537   54.9171  270.1798 C   0  0  0  0  0  0  0  0  0  0  0  0
   93.3263   55.3509  271.2282 C   0  0  0  0  0  0  0  0  0  0  0  0
   91.2211   50.2770  267.4353 H   0  0  0  0  0  0  0  0  0  0  0  0
   92.2830   46.4006  266.0044 H   0  0  0  0  0  0  0  0  0  0  0  0
   97.4739   48.0935  268.0476 H   0  0  0  0  0  0  0  0  0  0  0  0
   96.7985   45.9511  267.1009 H   0  0  0  0  0  0  0  0  0  0  0  0
   94.5234   45.6365  266.3754 H   0  0  0  0  0  0  0  0  0  0  0  0
   95.1447   51.6573  266.9179 H   0  0  0  0  0  0  0  0  0  0  0  0
   95.5870   53.8237  268.0125 H   0  0  0  0  0  0  0  0  0  0  0  0
   92.1712   50.7817  269.8707 H   0  0  0  0  0  0  0  0  0  0  0  0
   92.6440   52.9439  271.0042 H   0  0  0  0  0  0  0  0  0  0  0  0
   91.4153   47.5250  264.0133 H   0  0  0  0  0  0  0  0  0  0  0  0
   88.2325   45.3991  262.3296 H   0  0  0  0  0  0  0  0  0  0  0  0
   86.8936   45.6631  264.3824 H   0  0  0  0  0  0  0  0  0  0  0  0
   87.8835   45.6461  269.0207 H   0  0  0  0  0  0  0  0  0  0  0  0
   88.3406   44.6746  267.5807 H   0  0  0  0  0  0  0  0  0  0  0  0
   89.4222   45.9869  268.1589 H   0  0  0  0  0  0  0  0  0  0  0  0
   95.3412   54.8983  270.6641 H   0  0  0  0  0  0  0  0  0  0  0  0
   94.3533   55.6691  269.3770 H   0  0  0  0  0  0  0  0  0  0  0  0
   93.5952   56.3442  271.6168 H   0  0  0  0  0  0  0  0  0  0  0  0
   92.3286   55.3954  270.7672 H   0  0  0  0  0  0  0  0  0  0  0  0
   93.3165   54.6246  272.0542 H   0  0  0  0  0  0  0  0  0  0  0  0
  1  2  1  0  0  0  0
  1  4  1  0  0  0  0
  1 11  2  0  0  0  0
  2  3  2  0  0  0  0
  3  6  1  0  0  0  0
  3 12  1  0  0  0  0
  4  5  2  0  0  0  0
  5  6  1  0  0  0  0
  5 10  1  0  0  0  0
  6  7  2  0  0  0  0
  7  8  1  0  0  0  0
  8  9  2  0  0  0  0
  9 10  1  0  0  0  0
 11 18  1  0  0  0  0
 12 13  2  0  0  0  0
 12 15  1  0  0  0  0
 13 14  1  0  0  0  0
 14 17  2  0  0  0  0
 15 16  2  0  0  0  0
 16 17  1  0  0  0  0
 17 28  1  0  0  0  0
 18 19  2  0  0  0  0
 18 23  1  0  0  0  0
 19 20  1  0  0  0  0
 20 21  2  0  0  0  0
 21 22  1  0  0  0  0
 22 23  2  0  0  0  0
 23 24  1  0  0  0  0
 24 25  2  0  0  0  0
 24 26  2  0  0  0  0
 24 27  1  0  0  0  0
 28 29  1  0  0  0  0
  2 30  1  0  0  0  0
  4 31  1  0  0  0  0
  8 32  1  0  0  0  0
  9 33  1  0  0  0  0
 10 34  1  0  0  0  0
 13 35  1  0  0  0  0
 14 36  1  0  0  0  0
 15 37  1  0  0  0  0
 16 38  1  0  0  0  0
 19 39  1  0  0  0  0
 21 40  1  0  0  0  0
 22 41  1  0  0  0  0
 27 42  1  0  0  0  0
 27 43  1  0  0  0  0
 27 44  1  0  0  0  0
 28 45  1  0  0  0  0
 28 46  1  0  0  0  0
 29 47  1  0  0  0  0
 29 48  1  0  0  0  0
 29 49  1  0  0  0  0
M  END
> <ID>
47

> <IC50[uM]>
0.779

$$$$
47
  -OEChem-05192314313D
 Structure written by MMmdl.
 49 52  0     0  0  0  0  0  0999 V2000
   91.6083   48.3334  266.6744 C   0  0  0  0  0  0  0  0  0  0  0  0
   91.9770   49.5235  267.2704 C   0  0  0  0  0  0  0  0  0  0  0  0
   93.2888   49.7910  267.6682 C   0  0  0  0  0  0  0  0  0  0  0  0
   92.5616   47.3282  266.4823 C   0  0  0  0  0  0  0  0  0  0  0  0
   93.8964   47.5326  266.9181 C   0  0  0  0  0  0  0  0  0  0  0  0
   94.2747   48.7648  267.5031 C   0  0  0  0  0  0  0  0  0  0  0  0
   95.5582   48.9607  267.9334 N   0  0  0  0  0  0  0  0  0  0  0  0
   96.4450   47.9497  267.7524 C   0  0  0  0  0  0  0  0  0  0  0  0
   96.0650   46.7377  267.1987 C   0  0  0  0  0  0  0  0  0  0  0  0
   94.7919   46.5129  266.7751 N   0  0  0  0  0  0  0  0  0  0  0  0
   90.2641   48.1146  266.3110 N   0  0  0  0  0  0  0  0  0  0  0  0
   93.6036   51.0836  268.3078 C   0  0  0  0  0  0  0  0  0  0  0  0
   94.5822   51.9426  267.7946 C   0  0  0  0  0  0  0  0  0  0  0  0
   94.8311   53.1648  268.4135 C   0  0  0  0  0  0  0  0  0  0  0  0
   92.9139   51.4502  269.4609 C   0  0  0  0  0  0  0  0  0  0  0  0
   93.1683   52.6744  270.0993 C   0  0  0  0  0  0  0  0  0  0  0  0
   94.1199   53.5419  269.5356 C   0  0  0  0  0  0  0  0  0  0  0  0
   89.7151   47.3380  265.2859 C   0  0  0  0  0  0  0  0  0  0  0  0
   90.4155   47.1252  264.0962 C   0  0  0  0  0  0  0  0  0  0  0  0
   89.9070   46.4429  263.0387 N   0  0  0  0  0  0  0  0  0  0  0  0
   88.6553   45.9399  263.1634 C   0  0  0  0  0  0  0  0  0  0  0  0
   87.8846   46.0881  264.3216 C   0  0  0  0  0  0  0  0  0  0  0  0
   88.4235   46.7973  265.3979 C   0  0  0  0  0  0  0  0  0  0  0  0
   87.4819   46.9001  266.9260 S   0  0  0  0  0  0  0  0  0  0  0  0
   86.1337   46.3858  266.6708 O   0  0  0  0  0  0  0  0  0  0  0  0
   87.6636   48.2432  267.4756 O   0  0  0  0  0  0  0  0  0  0  0  0
   88.3745   45.6750  268.0367 C   0  0  0  0  0  0  0  0  0  0  0  0
   94.3537   54.9171  270.1798 C   0  0  0  0  0  0  0  0  0  0  0  0
   93.3263   55.3509  271.2282 C   0  0  0  0  0  0  0  0  0  0  0  0
   91.2211   50.2770  267.4353 H   0  0  0  0  0  0  0  0  0  0  0  0
   92.1900   46.4327  267.0019 H   0  0  0  0  0  0  0  0  0  0  0  0
   92.6056   47.1328  265.4007 H   0  0  0  0  0  0  0  0  0  0  0  0
   97.4739   48.0935  268.0476 H   0  0  0  0  0  0  0  0  0  0  0  0
   96.7985   45.9511  267.1009 H   0  0  0  0  0  0  0  0  0  0  0  0
   95.1447   51.6573  266.9179 H   0  0  0  0  0  0  0  0  0  0  0  0
   95.5870   53.8237  268.0125 H   0  0  0  0  0  0  0  0  0  0  0  0
   92.1712   50.7817  269.8707 H   0  0  0  0  0  0  0  0  0  0  0  0
   92.6440   52.9439  271.0042 H   0  0  0  0  0  0  0  0  0  0  0  0
   91.4153   47.5250  264.0133 H   0  0  0  0  0  0  0  0  0  0  0  0
   88.2325   45.3991  262.3296 H   0  0  0  0  0  0  0  0  0  0  0  0
   86.8936   45.6631  264.3824 H   0  0  0  0  0  0  0  0  0  0  0  0
   87.8835   45.6461  269.0207 H   0  0  0  0  0  0  0  0  0  0  0  0
   88.3406   44.6746  267.5807 H   0  0  0  0  0  0  0  0  0  0  0  0
   89.4222   45.9869  268.1589 H   0  0  0  0  0  0  0  0  0  0  0  0
   95.3412   54.8983  270.6641 H   0  0  0  0  0  0  0  0  0  0  0  0
   94.3533   55.6691  269.3770 H   0  0  0  0  0  0  0  0  0  0  0  0
   93.5952   56.3442  271.6168 H   0  0  0  0  0  0  0  0  0  0  0  0
   92.3286   55.3954  270.7672 H   0  0  0  0  0  0  0  0  0  0  0  0
   93.3165   54.6246  272.0542 H   0  0  0  0  0  0  0  0  0  0  0  0
  1  2  1  0  0  0  0
  1  4  1  0  0  0  0
  1 11  2  0  0  0  0
  2  3  2  0  0  0  0
  3  6  1  0  0  0  0
  3 12  1  0  0  0  0
  4  5  1  0  0  0  0
  5  6  2  0  0  0  0
  5 10  1  0  0  0  0
  6  7  1  0  0  0  0
  7  8  2  0  0  0  0
  8  9  1  0  0  0  0
  9 10  2  0  0  0  0
 11 18  1  0  0  0  0
 12 13  2  0  0  0  0
 12 15  1  0  0  0  0
 13 14  1  0  0  0  0
 14 17  2  0  0  0  0
 15 16  2  0  0  0  0
 16 17  1  0  0  0  0
 17 28  1  0  0  0  0
 18 19  2  0  0  0  0
 18 23  1  0  0  0  0
 19 20  1  0  0  0  0
 20 21  2  0  0  0  0
 21 22  1  0  0  0  0
 22 23  2  0  0  0  0
 23 24  1  0  0  0  0
 24 25  2  0  0  0  0
 24 26  2  0  0  0  0
 24 27  1  0  0  0  0
 28 29  1  0  0  0  0
  2 30  1  0  0  0  0
  4 31  1  0  0  0  0
  4 32  1  0  0  0  0
  8 33  1  0  0  0  0
  9 34  1  0  0  0  0
 13 35  1  0  0  0  0
 14 36  1  0  0  0  0
 15 37  1  0  0  0  0
 16 38  1  0  0  0  0
 19 39  1  0  0  0  0
 21 40  1  0  0  0  0
 22 41  1  0  0  0  0
 27 42  1  0  0  0  0
 27 43  1  0  0  0  0
 27 44  1  0  0  0  0
 28 45  1  0  0  0  0
 28 46  1  0  0  0  0
 29 47  1  0  0  0  0
 29 48  1  0  0  0  0
 29 49  1  0  0  0  0
M  END
> <ID>
47

> <IC50[uM]>
0.779

$$$$
47
  -OEChem-05192314313D
 Structure written by MMmdl.
 49 52  0     0  0  0  0  0  0999 V2000
   91.6083   48.3334  266.6744 C   0  0  0  0  0  0  0  0  0  0  0  0
   91.9770   49.5235  267.2704 C   0  0  0  0  0  0  0  0  0  0  0  0
   93.2888   49.7910  267.6682 C   0  0  0  0  0  0  0  0  0  0  0  0
   92.5616   47.3282  266.4823 C   0  0  0  0  0  0  0  0  0  0  0  0
   93.8964   47.5326  266.9181 C   0  0  0  0  0  0  0  0  0  0  0  0
   94.2747   48.7648  267.5031 C   0  0  0  0  0  0  0  0  0  0  0  0
   95.5582   48.9607  267.9334 N   0  0  0  0  0  0  0  0  0  0  0  0
   96.4450   47.9497  267.7524 C   0  0  0  0  0  0  0  0  0  0  0  0
   96.0650   46.7377  267.1987 C   0  0  0  0  0  0  0  0  0  0  0  0
   94.7919   46.5129  266.7751 N   0  0  0  0  0  0  0  0  0  0  0  0
   90.2641   48.1146  266.3110 N   0  0  0  0  0  0  0  0  0  0  0  0
   93.6036   51.0836  268.3078 C   0  0  0  0  0  0  0  0  0  0  0  0
   94.5822   51.9426  267.7946 C   0  0  0  0  0  0  0  0  0  0  0  0
   94.8311   53.1648  268.4135 C   0  0  0  0  0  0  0  0  0  0  0  0
   92.9139   51.4502  269.4609 C   0  0  0  0  0  0  0  0  0  0  0  0
   93.1683   52.6744  270.0993 C   0  0  0  0  0  0  0  0  0  0  0  0
   94.1199   53.5419  269.5356 C   0  0  0  0  0  0  0  0  0  0  0  0
   89.7151   47.3380  265.2859 C   0  0  0  0  0  0  0  0  0  0  0  0
   90.4155   47.1252  264.0962 C   0  0  0  0  0  0  0  0  0  0  0  0
   89.9070   46.4429  263.0387 N   0  0  0  0  0  0  0  0  0  0  0  0
   88.6553   45.9399  263.1634 C   0  0  0  0  0  0  0  0  0  0  0  0
   87.8846   46.0881  264.3216 C   0  0  0  0  0  0  0  0  0  0  0  0
   88.4235   46.7973  265.3979 C   0  0  0  0  0  0  0  0  0  0  0  0
   87.4819   46.9001  266.9260 S   0  0  0  0  0  0  0  0  0  0  0  0
   86.1337   46.3858  266.6708 O   0  0  0  0  0  0  0  0  0  0  0  0
   87.6636   48.2432  267.4756 O   0  0  0  0  0  0  0  0  0  0  0  0
   88.3745   45.6750  268.0367 C   0  0  0  0  0  0  0  0  0  0  0  0
   94.3537   54.9171  270.1798 C   0  0  0  0  0  0  0  0  0  0  0  0
   93.3263   55.3509  271.2282 C   0  0  0  0  0  0  0  0  0  0  0  0
   91.7060   50.3176  266.5591 H   0  0  0  0  0  0  0  0  0  0  0  0
   91.3589   49.6156  268.1757 H   0  0  0  0  0  0  0  0  0  0  0  0
   92.2830   46.4006  266.0044 H   0  0  0  0  0  0  0  0  0  0  0  0
   97.4739   48.0935  268.0476 H   0  0  0  0  0  0  0  0  0  0  0  0
   96.7985   45.9511  267.1009 H   0  0  0  0  0  0  0  0  0  0  0  0
   95.1447   51.6573  266.9179 H   0  0  0  0  0  0  0  0  0  0  0  0
   95.5870   53.8237  268.0125 H   0  0  0  0  0  0  0  0  0  0  0  0
   92.1712   50.7817  269.8707 H   0  0  0  0  0  0  0  0  0  0  0  0
   92.6440   52.9439  271.0042 H   0  0  0  0  0  0  0  0  0  0  0  0
   91.4153   47.5250  264.0133 H   0  0  0  0  0  0  0  0  0  0  0  0
   88.2325   45.3991  262.3296 H   0  0  0  0  0  0  0  0  0  0  0  0
   86.8936   45.6631  264.3824 H   0  0  0  0  0  0  0  0  0  0  0  0
   87.8835   45.6461  269.0207 H   0  0  0  0  0  0  0  0  0  0  0  0
   88.3406   44.6746  267.5807 H   0  0  0  0  0  0  0  0  0  0  0  0
   89.4222   45.9869  268.1589 H   0  0  0  0  0  0  0  0  0  0  0  0
   95.3412   54.8983  270.6641 H   0  0  0  0  0  0  0  0  0  0  0  0
   94.3533   55.6691  269.3770 H   0  0  0  0  0  0  0  0  0  0  0  0
   93.5952   56.3442  271.6168 H   0  0  0  0  0  0  0  0  0  0  0  0
   92.3286   55.3954  270.7672 H   0  0  0  0  0  0  0  0  0  0  0  0
   93.3165   54.6246  272.0542 H   0  0  0  0  0  0  0  0  0  0  0  0
  1  2  1  0  0  0  0
  1  4  1  0  0  0  0
  1 11  2  0  0  0  0
  2  3  1  0  0  0  0
  3  6  2  0  0  0  0
  3 12  1  0  0  0  0
  4  5  2  0  0  0  0
  5  6  1  0  0  0  0
  5 10  1  0  0  0  0
  6  7  1  0  0  0  0
  7  8  2  0  0  0  0
  8  9  1  0  0  0  0
  9 10  2  0  0  0  0
 11 18  1  0  0  0  0
 12 13  2  0  0  0  0
 12 15  1  0  0  0  0
 13 14  1  0  0  0  0
 14 17  2  0  0  0  0
 15 16  2  0  0  0  0
 16 17  1  0  0  0  0
 17 28  1  0  0  0  0
 18 19  2  0  0  0  0
 18 23  1  0  0  0  0
 19 20  1  0  0  0  0
 20 21  2  0  0  0  0
 21 22  1  0  0  0  0
 22 23  2  0  0  0  0
 23 24  1  0  0  0  0
 24 25  2  0  0  0  0
 24 26  2  0  0  0  0
 24 27  1  0  0  0  0
 28 29  1  0  0  0  0
  2 30  1  0  0  0  0
  2 31  1  0  0  0  0
  4 32  1  0  0  0  0
  8 33  1  0  0  0  0
  9 34  1  0  0  0  0
 13 35  1  0  0  0  0
 14 36  1  0  0  0  0
 15 37  1  0  0  0  0
 16 38  1  0  0  0  0
 19 39  1  0  0  0  0
 21 40  1  0  0  0  0
 22 41  1  0  0  0  0
 27 42  1  0  0  0  0
 27 43  1  0  0  0  0
 27 44  1  0  0  0  0
 28 45  1  0  0  0  0
 28 46  1  0  0  0  0
 29 47  1  0  0  0  0
 29 48  1  0  0  0  0
 29 49  1  0  0  0  0
M  END
> <ID>
47

> <IC50[uM]>
0.779

$$$$
47
  -OEChem-05192314313D
 Structure written by MMmdl.
 49 52  0     1  0  0  0  0  0999 V2000
   91.6083   48.3334  266.6744 C   0  0  0  0  0  0  0  0  0  0  0  0
   91.9770   49.5235  267.2704 C   0  0  0  0  0  0  0  0  0  0  0  0
   93.2888   49.7910  267.6682 C   0  0  0  0  0  0  0  0  0  0  0  0
   92.5616   47.3282  266.4823 C   0  0  0  0  0  0  0  0  0  0  0  0
   93.8964   47.5326  266.9181 C   0  0  0  0  0  0  0  0  0  0  0  0
   94.2747   48.7648  267.5031 C   0  0  0  0  0  0  0  0  0  0  0  0
   95.5582   48.9607  267.9334 N   0  0  0  0  0  0  0  0  0  0  0  0
   96.4450   47.9497  267.7524 C   0  0  0  0  0  0  0  0  0  0  0  0
   96.0650   46.7377  267.1987 C   0  0  0  0  0  0  0  0  0  0  0  0
   94.7919   46.5129  266.7751 N   0  0  0  0  0  0  0  0  0  0  0  0
   90.2641   48.1146  266.3110 N   0  0  0  0  0  0  0  0  0  0  0  0
   93.6036   51.0836  268.3078 C   0  0  0  0  0  0  0  0  0  0  0  0
   94.5822   51.9426  267.7946 C   0  0  0  0  0  0  0  0  0  0  0  0
   94.8311   53.1648  268.4135 C   0  0  0  0  0  0  0  0  0  0  0  0
   92.9139   51.4502  269.4609 C   0  0  0  0  0  0  0  0  0  0  0  0
   93.1683   52.6744  270.0993 C   0  0  0  0  0  0  0  0  0  0  0  0
   94.1199   53.5419  269.5356 C   0  0  0  0  0  0  0  0  0  0  0  0
   89.7151   47.3380  265.2859 C   0  0  0  0  0  0  0  0  0  0  0  0
   90.4155   47.1252  264.0962 C   0  0  0  0  0  0  0  0  0  0  0  0
   89.9070   46.4429  263.0387 N   0  0  0  0  0  0  0  0  0  0  0  0
   88.6553   45.9399  263.1634 C   0  0  0  0  0  0  0  0  0  0  0  0
   87.8846   46.0881  264.3216 C   0  0  0  0  0  0  0  0  0  0  0  0
   88.4235   46.7973  265.3979 C   0  0  3  0  0  0  0  0  0  0  0  0
   87.4819   46.9001  266.9260 S   0  0  0  0  0  0  0  0  0  0  0  0
   86.1337   46.3858  266.6708 O   0  0  0  0  0  0  0  0  0  0  0  0
   87.6636   48.2432  267.4756 O   0  0  0  0  0  0  0  0  0  0  0  0
   88.3745   45.6750  268.0367 C   0  0  0  0  0  0  0  0  0  0  0  0
   94.3537   54.9171  270.1798 C   0  0  0  0  0  0  0  0  0  0  0  0
   93.3263   55.3509  271.2282 C   0  0  0  0  0  0  0  0  0  0  0  0
   91.2211   50.2770  267.4353 H   0  0  0  0  0  0  0  0  0  0  0  0
   92.2830   46.4006  266.0044 H   0  0  0  0  0  0  0  0  0  0  0  0
   97.4739   48.0935  268.0476 H   0  0  0  0  0  0  0  0  0  0  0  0
   96.7985   45.9511  267.1009 H   0  0  0  0  0  0  0  0  0  0  0  0
   95.1447   51.6573  266.9179 H   0  0  0  0  0  0  0  0  0  0  0  0
   95.5870   53.8237  268.0125 H   0  0  0  0  0  0  0  0  0  0  0  0
   92.1712   50.7817  269.8707 H   0  0  0  0  0  0  0  0  0  0  0  0
   92.6440   52.9439  271.0042 H   0  0  0  0  0  0  0  0  0  0  0  0
   91.4153   47.5250  264.0133 H   0  0  0  0  0  0  0  0  0  0  0  0
   88.2325   45.3991  262.3296 H   0  0  0  0  0  0  0  0  0  0  0  0
   86.8936   45.6631  264.3824 H   0  0  0  0  0  0  0  0  0  0  0  0
   87.9743   47.7341  265.0364 H   0  0  0  0  0  0  0  0  0  0  0  0
   87.8835   45.6461  269.0207 H   0  0  0  0  0  0  0  0  0  0  0  0
   88.3406   44.6746  267.5807 H   0  0  0  0  0  0  0  0  0  0  0  0
   89.4222   45.9869  268.1589 H   0  0  0  0  0  0  0  0  0  0  0  0
   95.3412   54.8983  270.6641 H   0  0  0  0  0  0  0  0  0  0  0  0
   94.3533   55.6691  269.3770 H   0  0  0  0  0  0  0  0  0  0  0  0
   93.5952   56.3442  271.6168 H   0  0  0  0  0  0  0  0  0  0  0  0
   92.3286   55.3954  270.7672 H   0  0  0  0  0  0  0  0  0  0  0  0
   93.3165   54.6246  272.0542 H   0  0  0  0  0  0  0  0  0  0  0  0
  1  2  2  0  0  0  0
  1  4  1  0  0  0  0
  1 11  1  0  0  0  0
  2  3  1  0  0  0  0
  3  6  2  0  0  0  0
  3 12  1  0  0  0  0
  4  5  2  0  0  0  0
  5  6  1  0  0  0  0
  5 10  1  0  0  0  0
  6  7  1  0  0  0  0
  7  8  2  0  0  0  0
  8  9  1  0  0  0  0
  9 10  2  0  0  0  0
 11 18  2  0  0  0  0
 12 13  2  0  0  0  0
 12 15  1  0  0  0  0
 13 14  1  0  0  0  0
 14 17  2  0  0  0  0
 15 16  2  0  0  0  0
 16 17  1  0  0  0  0
 17 28  1  0  0  0  0
 18 19  1  0  0  0  0
 18 23  1  0  0  0  0
 19 20  2  0  0  0  0
 20 21  1  0  0  0  0
 21 22  2  0  0  0  0
 22 23  1  0  0  0  0
 23 24  1  0  0  0  0
 24 25  2  0  0  0  0
 24 26  2  0  0  0  0
 24 27  1  0  0  0  0
 28 29  1  0  0  0  0
  2 30  1  0  0  0  0
  4 31  1  0  0  0  0
  8 32  1  0  0  0  0
  9 33  1  0  0  0  0
 13 34  1  0  0  0  0
 14 35  1  0  0  0  0
 15 36  1  0  0  0  0
 16 37  1  0  0  0  0
 19 38  1  0  0  0  0
 21 39  1  0  0  0  0
 22 40  1  0  0  0  0
 23 41  1  0  0  0  0
 27 42  1  0  0  0  0
 27 43  1  0  0  0  0
 27 44  1  0  0  0  0
 28 45  1  0  0  0  0
 28 46  1  0  0  0  0
 29 47  1  0  0  0  0
 29 48  1  0  0  0  0
 29 49  1  0  0  0  0
M  END
> <ID>
47

> <IC50[uM]>
0.779

$$$$
47
  -OEChem-05192314313D
 Structure written by MMmdl.
 49 52  0     0  0  0  0  0  0999 V2000
   91.6083   48.3334  266.6744 C   0  0  0  0  0  0  0  0  0  0  0  0
   91.9770   49.5235  267.2704 C   0  0  0  0  0  0  0  0  0  0  0  0
   93.2888   49.7910  267.6682 C   0  0  0  0  0  0  0  0  0  0  0  0
   92.5616   47.3282  266.4823 C   0  0  0  0  0  0  0  0  0  0  0  0
   93.8964   47.5326  266.9181 C   0  0  0  0  0  0  0  0  0  0  0  0
   94.2747   48.7648  267.5031 C   0  0  0  0  0  0  0  0  0  0  0  0
   95.5582   48.9607  267.9334 N   0  0  0  0  0  0  0  0  0  0  0  0
   96.4450   47.9497  267.7524 C   0  0  0  0  0  0  0  0  0  0  0  0
   96.0650   46.7377  267.1987 C   0  0  0  0  0  0  0  0  0  0  0  0
   94.7919   46.5129  266.7751 N   0  0  0  0  0  0  0  0  0  0  0  0
   90.2641   48.1146  266.3110 N   0  0  0  0  0  0  0  0  0  0  0  0
   93.6036   51.0836  268.3078 C   0  0  0  0  0  0  0  0  0  0  0  0
   94.5822   51.9426  267.7946 C   0  0  0  0  0  0  0  0  0  0  0  0
   94.8311   53.1648  268.4135 C   0  0  0  0  0  0  0  0  0  0  0  0
   92.9139   51.4502  269.4609 C   0  0  0  0  0  0  0  0  0  0  0  0
   93.1683   52.6744  270.0993 C   0  0  0  0  0  0  0  0  0  0  0  0
   94.1199   53.5419  269.5356 C   0  0  0  0  0  0  0  0  0  0  0  0
   89.7151   47.3380  265.2859 C   0  0  0  0  0  0  0  0  0  0  0  0
   90.4155   47.1252  264.0962 C   0  0  0  0  0  0  0  0  0  0  0  0
   89.9070   46.4429  263.0387 N   0  0  0  0  0  0  0  0  0  0  0  0
   88.6553   45.9399  263.1634 C   0  0  0  0  0  0  0  0  0  0  0  0
   87.8846   46.0881  264.3216 C   0  0  0  0  0  0  0  0  0  0  0  0
   88.4235   46.7973  265.3979 C   0  0  0  0  0  0  0  0  0  0  0  0
   87.4819   46.9001  266.9260 S   0  0  0  0  0  0  0  0  0  0  0  0
   86.1337   46.3858  266.6708 O   0  0  0  0  0  0  0  0  0  0  0  0
   87.6636   48.2432  267.4756 O   0  0  0  0  0  0  0  0  0  0  0  0
   88.3745   45.6750  268.0367 C   0  0  0  0  0  0  0  0  0  0  0  0
   94.3537   54.9171  270.1798 C   0  0  0  0  0  0  0  0  0  0  0  0
   93.3263   55.3509  271.2282 C   0  0  0  0  0  0  0  0  0  0  0  0
   91.2211   50.2770  267.4353 H   0  0  0  0  0  0  0  0  0  0  0  0
   92.2830   46.4006  266.0044 H   0  0  0  0  0  0  0  0  0  0  0  0
   97.4739   48.0935  268.0476 H   0  0  0  0  0  0  0  0  0  0  0  0
   96.7985   45.9511  267.1009 H   0  0  0  0  0  0  0  0  0  0  0  0
   95.1447   51.6573  266.9179 H   0  0  0  0  0  0  0  0  0  0  0  0
   95.5870   53.8237  268.0125 H   0  0  0  0  0  0  0  0  0  0  0  0
   92.1712   50.7817  269.8707 H   0  0  0  0  0  0  0  0  0  0  0  0
   92.6440   52.9439  271.0042 H   0  0  0  0  0  0  0  0  0  0  0  0
   91.4153   47.5250  264.0133 H   0  0  0  0  0  0  0  0  0  0  0  0
   88.0668   46.3874  262.3489 H   0  0  0  0  0  0  0  0  0  0  0  0
   88.7466   44.8564  262.9972 H   0  0  0  0  0  0  0  0  0  0  0  0
   86.8936   45.6631  264.3824 H   0  0  0  0  0  0  0  0  0  0  0  0
   87.8835   45.6461  269.0207 H   0  0  0  0  0  0  0  0  0  0  0  0
   88.3406   44.6746  267.5807 H   0  0  0  0  0  0  0  0  0  0  0  0
   89.4222   45.9869  268.1589 H   0  0  0  0  0  0  0  0  0  0  0  0
   95.3412   54.8983  270.6641 H   0  0  0  0  0  0  0  0  0  0  0  0
   94.3533   55.6691  269.3770 H   0  0  0  0  0  0  0  0  0  0  0  0
   93.5952   56.3442  271.6168 H   0  0  0  0  0  0  0  0  0  0  0  0
   92.3286   55.3954  270.7672 H   0  0  0  0  0  0  0  0  0  0  0  0
   93.3165   54.6246  272.0542 H   0  0  0  0  0  0  0  0  0  0  0  0
  1  2  2  0  0  0  0
  1  4  1  0  0  0  0
  1 11  1  0  0  0  0
  2  3  1  0  0  0  0
  3  6  2  0  0  0  0
  3 12  1  0  0  0  0
  4  5  2  0  0  0  0
  5  6  1  0  0  0  0
  5 10  1  0  0  0  0
  6  7  1  0  0  0  0
  7  8  2  0  0  0  0
  8  9  1  0  0  0  0
  9 10  2  0  0  0  0
 11 18  2  0  0  0  0
 12 13  2  0  0  0  0
 12 15  1  0  0  0  0
 13 14  1  0  0  0  0
 14 17  2  0  0  0  0
 15 16  2  0  0  0  0
 16 17  1  0  0  0  0
 17 28  1  0  0  0  0
 18 19  1  0  0  0  0
 18 23  1  0  0  0  0
 19 20  2  0  0  0  0
 20 21  1  0  0  0  0
 21 22  1  0  0  0  0
 22 23  2  0  0  0  0
 23 24  1  0  0  0  0
 24 25  2  0  0  0  0
 24 26  2  0  0  0  0
 24 27  1  0  0  0  0
 28 29  1  0  0  0  0
  2 30  1  0  0  0  0
  4 31  1  0  0  0  0
  8 32  1  0  0  0  0
  9 33  1  0  0  0  0
 13 34  1  0  0  0  0
 14 35  1  0  0  0  0
 15 36  1  0  0  0  0
 16 37  1  0  0  0  0
 19 38  1  0  0  0  0
 21 39  1  0  0  0  0
 21 40  1  0  0  0  0
 22 41  1  0  0  0  0
 27 42  1  0  0  0  0
 27 43  1  0  0  0  0
 27 44  1  0  0  0  0
 28 45  1  0  0  0  0
 28 46  1  0  0  0  0
 29 47  1  0  0  0  0
 29 48  1  0  0  0  0
 29 49  1  0  0  0  0
M  END
> <ID>
47

> <IC50[uM]>
0.779

$$$$
47
  -OEChem-05192314313D
 Structure written by MMmdl.
 49 52  0     0  0  0  0  0  0999 V2000
   91.6083   48.3334  266.6744 C   0  0  0  0  0  0  0  0  0  0  0  0
   91.9770   49.5235  267.2704 C   0  0  0  0  0  0  0  0  0  0  0  0
   93.2888   49.7910  267.6682 C   0  0  0  0  0  0  0  0  0  0  0  0
   92.5616   47.3282  266.4823 C   0  0  0  0  0  0  0  0  0  0  0  0
   93.8964   47.5326  266.9181 C   0  0  0  0  0  0  0  0  0  0  0  0
   94.2747   48.7648  267.5031 C   0  0  0  0  0  0  0  0  0  0  0  0
   95.5582   48.9607  267.9334 N   0  0  0  0  0  0  0  0  0  0  0  0
   96.4450   47.9497  267.7524 C   0  0  0  0  0  0  0  0  0  0  0  0
   96.0650   46.7377  267.1987 C   0  0  0  0  0  0  0  0  0  0  0  0
   94.7919   46.5129  266.7751 N   0  0  0  0  0  0  0  0  0  0  0  0
   90.2641   48.1146  266.3110 N   0  0  0  0  0  0  0  0  0  0  0  0
   93.6036   51.0836  268.3078 C   0  0  0  0  0  0  0  0  0  0  0  0
   94.5822   51.9426  267.7946 C   0  0  0  0  0  0  0  0  0  0  0  0
   94.8311   53.1648  268.4135 C   0  0  0  0  0  0  0  0  0  0  0  0
   92.9139   51.4502  269.4609 C   0  0  0  0  0  0  0  0  0  0  0  0
   93.1683   52.6744  270.0993 C   0  0  0  0  0  0  0  0  0  0  0  0
   94.1199   53.5419  269.5356 C   0  0  0  0  0  0  0  0  0  0  0  0
   89.7151   47.3380  265.2859 C   0  0  0  0  0  0  0  0  0  0  0  0
   90.4155   47.1252  264.0962 C   0  0  0  0  0  0  0  0  0  0  0  0
   89.9070   46.4429  263.0387 N   0  0  0  0  0  0  0  0  0  0  0  0
   88.6553   45.9399  263.1634 C   0  0  0  0  0  0  0  0  0  0  0  0
   87.8846   46.0881  264.3216 C   0  0  0  0  0  0  0  0  0  0  0  0
   88.4235   46.7973  265.3979 C   0  0  0  0  0  0  0  0  0  0  0  0
   87.4819   46.9001  266.9260 S   0  0  0  0  0  0  0  0  0  0  0  0
   86.1337   46.3858  266.6708 O   0  0  0  0  0  0  0  0  0  0  0  0
   87.6636   48.2432  267.4756 O   0  0  0  0  0  0  0  0  0  0  0  0
   88.3745   45.6750  268.0367 C   0  0  0  0  0  0  0  0  0  0  0  0
   94.3537   54.9171  270.1798 C   0  0  0  0  0  0  0  0  0  0  0  0
   93.3263   55.3509  271.2282 C   0  0  0  0  0  0  0  0  0  0  0  0
   91.2211   50.2770  267.4353 H   0  0  0  0  0  0  0  0  0  0  0  0
   92.2830   46.4006  266.0044 H   0  0  0  0  0  0  0  0  0  0  0  0
   97.4739   48.0935  268.0476 H   0  0  0  0  0  0  0  0  0  0  0  0
   96.7985   45.9511  267.1009 H   0  0  0  0  0  0  0  0  0  0  0  0
   95.1447   51.6573  266.9179 H   0  0  0  0  0  0  0  0  0  0  0  0
   95.5870   53.8237  268.0125 H   0  0  0  0  0  0  0  0  0  0  0  0
   92.1712   50.7817  269.8707 H   0  0  0  0  0  0  0  0  0  0  0  0
   92.6440   52.9439  271.0042 H   0  0  0  0  0  0  0  0  0  0  0  0
   90.6701   48.1249  263.7144 H   0  0  0  0  0  0  0  0  0  0  0  0
   91.3368   46.5957  264.3805 H   0  0  0  0  0  0  0  0  0  0  0  0
   88.2325   45.3991  262.3296 H   0  0  0  0  0  0  0  0  0  0  0  0
   86.8936   45.6631  264.3824 H   0  0  0  0  0  0  0  0  0  0  0  0
   87.8835   45.6461  269.0207 H   0  0  0  0  0  0  0  0  0  0  0  0
   88.3406   44.6746  267.5807 H   0  0  0  0  0  0  0  0  0  0  0  0
   89.4222   45.9869  268.1589 H   0  0  0  0  0  0  0  0  0  0  0  0
   95.3412   54.8983  270.6641 H   0  0  0  0  0  0  0  0  0  0  0  0
   94.3533   55.6691  269.3770 H   0  0  0  0  0  0  0  0  0  0  0  0
   93.5952   56.3442  271.6168 H   0  0  0  0  0  0  0  0  0  0  0  0
   92.3286   55.3954  270.7672 H   0  0  0  0  0  0  0  0  0  0  0  0
   93.3165   54.6246  272.0542 H   0  0  0  0  0  0  0  0  0  0  0  0
  1  2  2  0  0  0  0
  1  4  1  0  0  0  0
  1 11  1  0  0  0  0
  2  3  1  0  0  0  0
  3  6  2  0  0  0  0
  3 12  1  0  0  0  0
  4  5  2  0  0  0  0
  5  6  1  0  0  0  0
  5 10  1  0  0  0  0
  6  7  1  0  0  0  0
  7  8  2  0  0  0  0
  8  9  1  0  0  0  0
  9 10  2  0  0  0  0
 11 18  2  0  0  0  0
 12 13  2  0  0  0  0
 12 15  1  0  0  0  0
 13 14  1  0  0  0  0
 14 17  2  0  0  0  0
 15 16  2  0  0  0  0
 16 17  1  0  0  0  0
 17 28  1  0  0  0  0
 18 19  1  0  0  0  0
 18 23  1  0  0  0  0
 19 20  1  0  0  0  0
 20 21  2  0  0  0  0
 21 22  1  0  0  0  0
 22 23  2  0  0  0  0
 23 24  1  0  0  0  0
 24 25  2  0  0  0  0
 24 26  2  0  0  0  0
 24 27  1  0  0  0  0
 28 29  1  0  0  0  0
  2 30  1  0  0  0  0
  4 31  1  0  0  0  0
  8 32  1  0  0  0  0
  9 33  1  0  0  0  0
 13 34  1  0  0  0  0
 14 35  1  0  0  0  0
 15 36  1  0  0  0  0
 16 37  1  0  0  0  0
 19 38  1  0  0  0  0
 19 39  1  0  0  0  0
 21 40  1  0  0  0  0
 22 41  1  0  0  0  0
 27 42  1  0  0  0  0
 27 43  1  0  0  0  0
 27 44  1  0  0  0  0
 28 45  1  0  0  0  0
 28 46  1  0  0  0  0
 29 47  1  0  0  0  0
 29 48  1  0  0  0  0
 29 49  1  0  0  0  0
M  END
> <ID>
47

> <IC50[uM]>
0.779

$$$$
47
  -OEChem-05192314313D
 Structure written by MMmdl.
 49 52  0     1  0  0  0  0  0999 V2000
   91.6083   48.3334  266.6744 C   0  0  0  0  0  0  0  0  0  0  0  0
   91.9770   49.5235  267.2704 C   0  0  0  0  0  0  0  0  0  0  0  0
   93.2888   49.7910  267.6682 C   0  0  0  0  0  0  0  0  0  0  0  0
   92.5616   47.3282  266.4823 C   0  0  0  0  0  0  0  0  0  0  0  0
   93.8964   47.5326  266.9181 C   0  0  0  0  0  0  0  0  0  0  0  0
   94.2747   48.7648  267.5031 C   0  0  3  0  0  0  0  0  0  0  0  0
   95.5582   48.9607  267.9334 N   0  0  0  0  0  0  0  0  0  0  0  0
   96.4450   47.9497  267.7524 C   0  0  0  0  0  0  0  0  0  0  0  0
   96.0650   46.7377  267.1987 C   0  0  0  0  0  0  0  0  0  0  0  0
   94.7919   46.5129  266.7751 N   0  0  0  0  0  0  0  0  0  0  0  0
   90.2641   48.1146  266.3110 N   0  0  0  0  0  0  0  0  0  0  0  0
   93.6036   51.0836  268.3078 C   0  0  0  0  0  0  0  0  0  0  0  0
   94.5822   51.9426  267.7946 C   0  0  0  0  0  0  0  0  0  0  0  0
   94.8311   53.1648  268.4135 C   0  0  0  0  0  0  0  0  0  0  0  0
   92.9139   51.4502  269.4609 C   0  0  0  0  0  0  0  0  0  0  0  0
   93.1683   52.6744  270.0993 C   0  0  0  0  0  0  0  0  0  0  0  0
   94.1199   53.5419  269.5356 C   0  0  0  0  0  0  0  0  0  0  0  0
   89.7151   47.3380  265.2859 C   0  0  0  0  0  0  0  0  0  0  0  0
   90.4155   47.1252  264.0962 C   0  0  0  0  0  0  0  0  0  0  0  0
   89.9070   46.4429  263.0387 N   0  0  0  0  0  0  0  0  0  0  0  0
   88.6553   45.9399  263.1634 C   0  0  0  0  0  0  0  0  0  0  0  0
   87.8846   46.0881  264.3216 C   0  0  0  0  0  0  0  0  0  0  0  0
   88.4235   46.7973  265.3979 C   0  0  0  0  0  0  0  0  0  0  0  0
   87.4819   46.9001  266.9260 S   0  0  0  0  0  0  0  0  0  0  0  0
   86.1337   46.3858  266.6708 O   0  0  0  0  0  0  0  0  0  0  0  0
   87.6636   48.2432  267.4756 O   0  0  0  0  0  0  0  0  0  0  0  0
   88.3745   45.6750  268.0367 C   0  0  0  0  0  0  0  0  0  0  0  0
   94.3537   54.9171  270.1798 C   0  0  0  0  0  0  0  0  0  0  0  0
   93.3263   55.3509  271.2282 C   0  0  0  0  0  0  0  0  0  0  0  0
   91.2211   50.2770  267.4353 H   0  0  0  0  0  0  0  0  0  0  0  0
   92.2830   46.4006  266.0044 H   0  0  0  0  0  0  0  0  0  0  0  0
   94.5367   49.1644  266.5123 H   0  0  0  0  0  0  0  0  0  0  0  0
   97.4739   48.0935  268.0476 H   0  0  0  0  0  0  0  0  0  0  0  0
   96.7985   45.9511  267.1009 H   0  0  0  0  0  0  0  0  0  0  0  0
   95.1447   51.6573  266.9179 H   0  0  0  0  0  0  0  0  0  0  0  0
   95.5870   53.8237  268.0125 H   0  0  0  0  0  0  0  0  0  0  0  0
   92.1712   50.7817  269.8707 H   0  0  0  0  0  0  0  0  0  0  0  0
   92.6440   52.9439  271.0042 H   0  0  0  0  0  0  0  0  0  0  0  0
   91.4153   47.5250  264.0133 H   0  0  0  0  0  0  0  0  0  0  0  0
   88.2325   45.3991  262.3296 H   0  0  0  0  0  0  0  0  0  0  0  0
   86.8936   45.6631  264.3824 H   0  0  0  0  0  0  0  0  0  0  0  0
   87.8835   45.6461  269.0207 H   0  0  0  0  0  0  0  0  0  0  0  0
   88.3406   44.6746  267.5807 H   0  0  0  0  0  0  0  0  0  0  0  0
   89.4222   45.9869  268.1589 H   0  0  0  0  0  0  0  0  0  0  0  0
   95.3412   54.8983  270.6641 H   0  0  0  0  0  0  0  0  0  0  0  0
   94.3533   55.6691  269.3770 H   0  0  0  0  0  0  0  0  0  0  0  0
   93.5952   56.3442  271.6168 H   0  0  0  0  0  0  0  0  0  0  0  0
   92.3286   55.3954  270.7672 H   0  0  0  0  0  0  0  0  0  0  0  0
   93.3165   54.6246  272.0542 H   0  0  0  0  0  0  0  0  0  0  0  0
  1  2  1  0  0  0  0
  1  4  1  0  0  0  0
  1 11  2  0  0  0  0
  2  3  2  0  0  0  0
  3  6  1  0  0  0  0
  3 12  1  0  0  0  0
  4  5  2  0  0  0  0
  5  6  1  0  0  0  0
  5 10  1  0  0  0  0
  6  7  1  0  0  0  0
  7  8  2  0  0  0  0
  8  9  1  0  0  0  0
  9 10  2  0  0  0  0
 11 18  1  0  0  0  0
 12 13  2  0  0  0  0
 12 15  1  0  0  0  0
 13 14  1  0  0  0  0
 14 17  2  0  0  0  0
 15 16  2  0  0  0  0
 16 17  1  0  0  0  0
 17 28  1  0  0  0  0
 18 19  2  0  0  0  0
 18 23  1  0  0  0  0
 19 20  1  0  0  0  0
 20 21  2  0  0  0  0
 21 22  1  0  0  0  0
 22 23  2  0  0  0  0
 23 24  1  0  0  0  0
 24 25  2  0  0  0  0
 24 26  2  0  0  0  0
 24 27  1  0  0  0  0
 28 29  1  0  0  0  0
  2 30  1  0  0  0  0
  4 31  1  0  0  0  0
  6 32  1  0  0  0  0
  8 33  1  0  0  0  0
  9 34  1  0  0  0  0
 13 35  1  0  0  0  0
 14 36  1  0  0  0  0
 15 37  1  0  0  0  0
 16 38  1  0  0  0  0
 19 39  1  0  0  0  0
 21 40  1  0  0  0  0
 22 41  1  0  0  0  0
 27 42  1  0  0  0  0
 27 43  1  0  0  0  0
 27 44  1  0  0  0  0
 28 45  1  0  0  0  0
 28 46  1  0  0  0  0
 29 47  1  0  0  0  0
 29 48  1  0  0  0  0
 29 49  1  0  0  0  0
M  END
> <ID>
47

> <IC50[uM]>
0.779

$$$$
47
  -OEChem-05192314313D
 Structure written by MMmdl.
 49 52  0     0  0  0  0  0  0999 V2000
   91.6083   48.3334  266.6744 C   0  0  0  0  0  0  0  0  0  0  0  0
   91.9770   49.5235  267.2704 C   0  0  0  0  0  0  0  0  0  0  0  0
   93.2888   49.7910  267.6682 C   0  0  0  0  0  0  0  0  0  0  0  0
   92.5616   47.3282  266.4823 C   0  0  0  0  0  0  0  0  0  0  0  0
   93.8964   47.5326  266.9181 C   0  0  0  0  0  0  0  0  0  0  0  0
   94.2747   48.7648  267.5031 C   0  0  0  0  0  0  0  0  0  0  0  0
   95.5582   48.9607  267.9334 N   0  0  0  0  0  0  0  0  0  0  0  0
   96.4450   47.9497  267.7524 C   0  0  0  0  0  0  0  0  0  0  0  0
   96.0650   46.7377  267.1987 C   0  0  0  0  0  0  0  0  0  0  0  0
   94.7919   46.5129  266.7751 N   0  0  0  0  0  0  0  0  0  0  0  0
   90.2641   48.1146  266.3110 N   0  0  0  0  0  0  0  0  0  0  0  0
   93.6036   51.0836  268.3078 C   0  0  0  0  0  0  0  0  0  0  0  0
   94.5822   51.9426  267.7946 C   0  0  0  0  0  0  0  0  0  0  0  0
   94.8311   53.1648  268.4135 C   0  0  0  0  0  0  0  0  0  0  0  0
   92.9139   51.4502  269.4609 C   0  0  0  0  0  0  0  0  0  0  0  0
   93.1683   52.6744  270.0993 C   0  0  0  0  0  0  0  0  0  0  0  0
   94.1199   53.5419  269.5356 C   0  0  0  0  0  0  0  0  0  0  0  0
   89.7151   47.3380  265.2859 C   0  0  0  0  0  0  0  0  0  0  0  0
   90.4155   47.1252  264.0962 C   0  0  0  0  0  0  0  0  0  0  0  0
   89.9070   46.4429  263.0387 N   0  0  0  0  0  0  0  0  0  0  0  0
   88.6553   45.9399  263.1634 C   0  0  0  0  0  0  0  0  0  0  0  0
   87.8846   46.0881  264.3216 C   0  0  0  0  0  0  0  0  0  0  0  0
   88.4235   46.7973  265.3979 C   0  0  0  0  0  0  0  0  0  0  0  0
   87.4819   46.9001  266.9260 S   0  0  0  0  0  0  0  0  0  0  0  0
   86.1337   46.3858  266.6708 O   0  0  0  0  0  0  0  0  0  0  0  0
   87.6636   48.2432  267.4756 O   0  0  0  0  0  0  0  0  0  0  0  0
   88.3745   45.6750  268.0367 C   0  0  0  0  0  0  0  0  0  0  0  0
   94.3537   54.9171  270.1798 C   0  0  0  0  0  0  0  0  0  0  0  0
   93.3263   55.3509  271.2282 C   0  0  0  0  0  0  0  0  0  0  0  0
   91.2211   50.2770  267.4353 H   0  0  0  0  0  0  0  0  0  0  0  0
   92.2830   46.4006  266.0044 H   0  0  0  0  0  0  0  0  0  0  0  0
   97.2412   48.3486  267.1067 H   0  0  0  0  0  0  0  0  0  0  0  0
   96.8588   47.7199  268.7453 H   0  0  0  0  0  0  0  0  0  0  0  0
   96.7985   45.9511  267.1009 H   0  0  0  0  0  0  0  0  0  0  0  0
   95.1447   51.6573  266.9179 H   0  0  0  0  0  0  0  0  0  0  0  0
   95.5870   53.8237  268.0125 H   0  0  0  0  0  0  0  0  0  0  0  0
   92.1712   50.7817  269.8707 H   0  0  0  0  0  0  0  0  0  0  0  0
   92.6440   52.9439  271.0042 H   0  0  0  0  0  0  0  0  0  0  0  0
   91.4153   47.5250  264.0133 H   0  0  0  0  0  0  0  0  0  0  0  0
   88.2325   45.3991  262.3296 H   0  0  0  0  0  0  0  0  0  0  0  0
   86.8936   45.6631  264.3824 H   0  0  0  0  0  0  0  0  0  0  0  0
   87.8835   45.6461  269.0207 H   0  0  0  0  0  0  0  0  0  0  0  0
   88.3406   44.6746  267.5807 H   0  0  0  0  0  0  0  0  0  0  0  0
   89.4222   45.9869  268.1589 H   0  0  0  0  0  0  0  0  0  0  0  0
   95.3412   54.8983  270.6641 H   0  0  0  0  0  0  0  0  0  0  0  0
   94.3533   55.6691  269.3770 H   0  0  0  0  0  0  0  0  0  0  0  0
   93.5952   56.3442  271.6168 H   0  0  0  0  0  0  0  0  0  0  0  0
   92.3286   55.3954  270.7672 H   0  0  0  0  0  0  0  0  0  0  0  0
   93.3165   54.6246  272.0542 H   0  0  0  0  0  0  0  0  0  0  0  0
  1  2  1  0  0  0  0
  1  4  1  0  0  0  0
  1 11  2  0  0  0  0
  2  3  2  0  0  0  0
  3  6  1  0  0  0  0
  3 12  1  0  0  0  0
  4  5  2  0  0  0  0
  5  6  1  0  0  0  0
  5 10  1  0  0  0  0
  6  7  2  0  0  0  0
  7  8  1  0  0  0  0
  8  9  1  0  0  0  0
  9 10  2  0  0  0  0
 11 18  1  0  0  0  0
 12 13  2  0  0  0  0
 12 15  1  0  0  0  0
 13 14  1  0  0  0  0
 14 17  2  0  0  0  0
 15 16  2  0  0  0  0
 16 17  1  0  0  0  0
 17 28  1  0  0  0  0
 18 19  2  0  0  0  0
 18 23  1  0  0  0  0
 19 20  1  0  0  0  0
 20 21  2  0  0  0  0
 21 22  1  0  0  0  0
 22 23  2  0  0  0  0
 23 24  1  0  0  0  0
 24 25  2  0  0  0  0
 24 26  2  0  0  0  0
 24 27  1  0  0  0  0
 28 29  1  0  0  0  0
  2 30  1  0  0  0  0
  4 31  1  0  0  0  0
  8 32  1  0  0  0  0
  8 33  1  0  0  0  0
  9 34  1  0  0  0  0
 13 35  1  0  0  0  0
 14 36  1  0  0  0  0
 15 37  1  0  0  0  0
 16 38  1  0  0  0  0
 19 39  1  0  0  0  0
 21 40  1  0  0  0  0
 22 41  1  0  0  0  0
 27 42  1  0  0  0  0
 27 43  1  0  0  0  0
 27 44  1  0  0  0  0
 28 45  1  0  0  0  0
 28 46  1  0  0  0  0
 29 47  1  0  0  0  0
 29 48  1  0  0  0  0
 29 49  1  0  0  0  0
M  END
> <ID>
47

> <IC50[uM]>
0.779

$$$$
