59
  -OEChem-05192314313D
 Structure written by MMmdl.
 49 53  0     0  0  0  0  0  0999 V2000
   94.8018   46.5109  266.7810 N   0  0  0  0  0  0  0  0  0  0  0  0
   95.5594   48.9562  267.9425 N   0  0  0  0  0  0  0  0  0  0  0  0
   96.4498   47.9500  267.7562 C   0  0  0  0  0  0  0  0  0  0  0  0
   96.0677   46.7343  267.2047 C   0  0  0  0  0  0  0  0  0  0  0  0
   94.2682   48.7611  267.5159 C   0  0  0  0  0  0  0  0  0  0  0  0
   93.8962   47.5221  266.9192 C   0  0  0  0  0  0  0  0  0  0  0  0
   92.5694   47.3244  266.4788 C   0  0  0  0  0  0  0  0  0  0  0  0
   91.6134   48.3190  266.6708 C   0  0  0  0  0  0  0  0  0  0  0  0
   91.9660   49.5150  267.2751 C   0  0  0  0  0  0  0  0  0  0  0  0
   93.2855   49.7790  267.6840 C   0  0  0  0  0  0  0  0  0  0  0  0
   93.5879   51.0782  268.3122 C   0  0  0  0  0  0  0  0  0  0  0  0
   90.2737   48.1142  266.3097 N   0  0  0  0  0  0  0  0  0  0  0  0
   94.5752   51.9225  267.7816 C   0  0  0  0  0  0  0  0  0  0  0  0
   94.8653   53.1505  268.3816 C   0  0  0  0  0  0  0  0  0  0  0  0
   92.8985   51.4691  269.4627 C   0  0  0  0  0  0  0  0  0  0  0  0
   89.7155   47.3452  265.2853 C   0  0  0  0  0  0  0  0  0  0  0  0
   90.4138   47.1285  264.0886 C   0  0  0  0  0  0  0  0  0  0  0  0
   89.9106   46.4419  263.0368 N   0  0  0  0  0  0  0  0  0  0  0  0
   88.6568   45.9347  263.1618 C   0  0  0  0  0  0  0  0  0  0  0  0
   87.8875   46.0867  264.3143 C   0  0  0  0  0  0  0  0  0  0  0  0
   88.4223   46.8005  265.3926 C   0  0  0  0  0  0  0  0  0  0  0  0
   87.4801   46.8993  266.9179 S   0  0  0  0  0  0  0  0  0  0  0  0
   86.1285   46.4001  266.6610 O   0  0  0  0  0  0  0  0  0  0  0  0
   87.6734   48.2433  267.4795 O   0  0  0  0  0  0  0  0  0  0  0  0
   88.3715   45.6618  268.0181 C   0  0  0  0  0  0  0  0  0  0  0  0
   93.1809   52.6785  270.0639 C   0  0  0  0  0  0  0  0  0  0  0  0
   94.1584   53.5252  269.5157 C   0  0  0  0  0  0  0  0  0  0  0  0
   94.4333   54.7672  270.0482 O   0  0  0  0  0  0  0  0  0  0  0  0
   94.0133   54.9117  271.4001 C   0  0  0  0  0  0  0  0  0  0  0  0
   92.5929   54.3553  271.5885 C   0  0  0  0  0  0  0  0  0  0  0  0
   92.5255   52.9762  271.2421 O   0  0  0  0  0  0  0  0  0  0  0  0
   97.4803   48.0979  268.0436 H   0  0  0  0  0  0  0  0  0  0  0  0
   96.8001   45.9461  267.1114 H   0  0  0  0  0  0  0  0  0  0  0  0
   92.2952   46.4001  265.9920 H   0  0  0  0  0  0  0  0  0  0  0  0
   91.2063   50.2655  267.4366 H   0  0  0  0  0  0  0  0  0  0  0  0
   89.6088   48.5980  266.8788 H   0  0  0  0  0  0  0  0  0  0  0  0
   95.1177   51.6193  266.8983 H   0  0  0  0  0  0  0  0  0  0  0  0
   95.6264   53.7969  267.9701 H   0  0  0  0  0  0  0  0  0  0  0  0
   92.1422   50.8227  269.8828 H   0  0  0  0  0  0  0  0  0  0  0  0
   91.4113   47.5332  264.0014 H   0  0  0  0  0  0  0  0  0  0  0  0
   88.2366   45.3886  262.3302 H   0  0  0  0  0  0  0  0  0  0  0  0
   86.8966   45.6613  264.3739 H   0  0  0  0  0  0  0  0  0  0  0  0
   87.8821   45.6266  269.0026 H   0  0  0  0  0  0  0  0  0  0  0  0
   88.3337   44.6651  267.5542 H   0  0  0  0  0  0  0  0  0  0  0  0
   89.4204   45.9696  268.1409 H   0  0  0  0  0  0  0  0  0  0  0  0
   94.7063   54.3625  272.0544 H   0  0  0  0  0  0  0  0  0  0  0  0
   94.0223   55.9782  271.6693 H   0  0  0  0  0  0  0  0  0  0  0  0
   92.2985   54.4747  272.6416 H   0  0  0  0  0  0  0  0  0  0  0  0
   91.8995   54.9197  270.9477 H   0  0  0  0  0  0  0  0  0  0  0  0
  1  4  2  0  0  0  0
  1  6  1  0  0  0  0
  2  3  2  0  0  0  0
  2  5  1  0  0  0  0
  3  4  1  0  0  0  0
  5  6  2  0  0  0  0
  5 10  1  0  0  0  0
  6  7  1  0  0  0  0
  7  8  2  0  0  0  0
  8  9  1  0  0  0  0
  8 12  1  0  0  0  0
  9 10  2  0  0  0  0
 10 11  1  0  0  0  0
 11 13  2  0  0  0  0
 11 15  1  0  0  0  0
 12 16  1  0  0  0  0
 13 14  1  0  0  0  0
 14 27  2  0  0  0  0
 15 26  2  0  0  0  0
 16 17  2  0  0  0  0
 16 21  1  0  0  0  0
 17 18  1  0  0  0  0
 18 19  2  0  0  0  0
 19 20  1  0  0  0  0
 20 21  2  0  0  0  0
 21 22  1  0  0  0  0
 22 23  2  0  0  0  0
 22 24  2  0  0  0  0
 22 25  1  0  0  0  0
 26 27  1  0  0  0  0
 26 31  1  0  0  0  0
 27 28  1  0  0  0  0
 28 29  1  0  0  0  0
 29 30  1  0  0  0  0
 30 31  1  0  0  0  0
  3 32  1  0  0  0  0
  4 33  1  0  0  0  0
  7 34  1  0  0  0  0
  9 35  1  0  0  0  0
 12 36  1  0  0  0  0
 13 37  1  0  0  0  0
 14 38  1  0  0  0  0
 15 39  1  0  0  0  0
 17 40  1  0  0  0  0
 19 41  1  0  0  0  0
 20 42  1  0  0  0  0
 25 43  1  0  0  0  0
 25 44  1  0  0  0  0
 25 45  1  0  0  0  0
 29 46  1  0  0  0  0
 29 47  1  0  0  0  0
 30 48  1  0  0  0  0
 30 49  1  0  0  0  0
M  END
> <ID>
59

> <IC50[uM]>
1.126

$$$$
59
  -OEChem-05192314313D
 Structure written by MMmdl.
 49 53  0     0  0  0  0  0  0999 V2000
   94.8018   46.5109  266.7810 N   0  0  0  0  0  0  0  0  0  0  0  0
   95.5594   48.9562  267.9425 N   0  0  0  0  0  0  0  0  0  0  0  0
   96.4498   47.9500  267.7562 C   0  0  0  0  0  0  0  0  0  0  0  0
   96.0677   46.7343  267.2047 C   0  0  0  0  0  0  0  0  0  0  0  0
   94.2682   48.7611  267.5159 C   0  0  0  0  0  0  0  0  0  0  0  0
   93.8962   47.5221  266.9192 C   0  0  0  0  0  0  0  0  0  0  0  0
   92.5694   47.3244  266.4788 C   0  0  0  0  0  0  0  0  0  0  0  0
   91.6134   48.3190  266.6708 C   0  0  0  0  0  0  0  0  0  0  0  0
   91.9660   49.5150  267.2751 C   0  0  0  0  0  0  0  0  0  0  0  0
   93.2855   49.7790  267.6840 C   0  0  0  0  0  0  0  0  0  0  0  0
   93.5879   51.0782  268.3122 C   0  0  0  0  0  0  0  0  0  0  0  0
   90.2737   48.1142  266.3097 N   0  0  0  0  0  0  0  0  0  0  0  0
   94.5752   51.9225  267.7816 C   0  0  0  0  0  0  0  0  0  0  0  0
   94.8653   53.1505  268.3816 C   0  0  0  0  0  0  0  0  0  0  0  0
   92.8985   51.4691  269.4627 C   0  0  0  0  0  0  0  0  0  0  0  0
   89.7155   47.3452  265.2853 C   0  0  0  0  0  0  0  0  0  0  0  0
   90.4138   47.1285  264.0886 C   0  0  0  0  0  0  0  0  0  0  0  0
   89.9106   46.4419  263.0368 N   0  0  0  0  0  0  0  0  0  0  0  0
   88.6568   45.9347  263.1618 C   0  0  0  0  0  0  0  0  0  0  0  0
   87.8875   46.0867  264.3143 C   0  0  0  0  0  0  0  0  0  0  0  0
   88.4223   46.8005  265.3926 C   0  0  0  0  0  0  0  0  0  0  0  0
   87.4801   46.8993  266.9179 S   0  0  0  0  0  0  0  0  0  0  0  0
   86.1285   46.4001  266.6610 O   0  0  0  0  0  0  0  0  0  0  0  0
   87.6734   48.2433  267.4795 O   0  0  0  0  0  0  0  0  0  0  0  0
   88.3715   45.6618  268.0181 C   0  0  0  0  0  0  0  0  0  0  0  0
   93.1809   52.6785  270.0639 C   0  0  0  0  0  0  0  0  0  0  0  0
   94.1584   53.5252  269.5157 C   0  0  0  0  0  0  0  0  0  0  0  0
   94.4333   54.7672  270.0482 O   0  0  0  0  0  0  0  0  0  0  0  0
   94.0133   54.9117  271.4001 C   0  0  0  0  0  0  0  0  0  0  0  0
   92.5929   54.3553  271.5885 C   0  0  0  0  0  0  0  0  0  0  0  0
   92.5255   52.9762  271.2421 O   0  0  0  0  0  0  0  0  0  0  0  0
   94.5388   45.6335  266.3798 H   0  0  0  0  0  0  0  0  0  0  0  0
   97.4803   48.0979  268.0436 H   0  0  0  0  0  0  0  0  0  0  0  0
   96.8001   45.9461  267.1114 H   0  0  0  0  0  0  0  0  0  0  0  0
   92.2952   46.4001  265.9920 H   0  0  0  0  0  0  0  0  0  0  0  0
   91.2063   50.2655  267.4366 H   0  0  0  0  0  0  0  0  0  0  0  0
   95.1177   51.6193  266.8983 H   0  0  0  0  0  0  0  0  0  0  0  0
   95.6264   53.7969  267.9701 H   0  0  0  0  0  0  0  0  0  0  0  0
   92.1422   50.8227  269.8828 H   0  0  0  0  0  0  0  0  0  0  0  0
   91.4113   47.5332  264.0014 H   0  0  0  0  0  0  0  0  0  0  0  0
   88.2366   45.3886  262.3302 H   0  0  0  0  0  0  0  0  0  0  0  0
   86.8966   45.6613  264.3739 H   0  0  0  0  0  0  0  0  0  0  0  0
   87.8821   45.6266  269.0026 H   0  0  0  0  0  0  0  0  0  0  0  0
   88.3337   44.6651  267.5542 H   0  0  0  0  0  0  0  0  0  0  0  0
   89.4204   45.9696  268.1409 H   0  0  0  0  0  0  0  0  0  0  0  0
   94.7063   54.3625  272.0544 H   0  0  0  0  0  0  0  0  0  0  0  0
   94.0223   55.9782  271.6693 H   0  0  0  0  0  0  0  0  0  0  0  0
   92.2985   54.4747  272.6416 H   0  0  0  0  0  0  0  0  0  0  0  0
   91.8995   54.9197  270.9477 H   0  0  0  0  0  0  0  0  0  0  0  0
  1  4  1  0  0  0  0
  1  6  1  0  0  0  0
  2  3  1  0  0  0  0
  2  5  2  0  0  0  0
  3  4  2  0  0  0  0
  5  6  1  0  0  0  0
  5 10  1  0  0  0  0
  6  7  2  0  0  0  0
  7  8  1  0  0  0  0
  8  9  1  0  0  0  0
  8 12  2  3  0  0  0
  9 10  2  0  0  0  0
 10 11  1  0  0  0  0
 11 13  2  0  0  0  0
 11 15  1  0  0  0  0
 12 16  1  0  0  0  0
 13 14  1  0  0  0  0
 14 27  2  0  0  0  0
 15 26  2  0  0  0  0
 16 17  2  0  0  0  0
 16 21  1  0  0  0  0
 17 18  1  0  0  0  0
 18 19  2  0  0  0  0
 19 20  1  0  0  0  0
 20 21  2  0  0  0  0
 21 22  1  0  0  0  0
 22 23  2  0  0  0  0
 22 24  2  0  0  0  0
 22 25  1  0  0  0  0
 26 27  1  0  0  0  0
 26 31  1  0  0  0  0
 27 28  1  0  0  0  0
 28 29  1  0  0  0  0
 29 30  1  0  0  0  0
 30 31  1  0  0  0  0
  1 32  1  0  0  0  0
  3 33  1  0  0  0  0
  4 34  1  0  0  0  0
  7 35  1  0  0  0  0
  9 36  1  0  0  0  0
 13 37  1  0  0  0  0
 14 38  1  0  0  0  0
 15 39  1  0  0  0  0
 17 40  1  0  0  0  0
 19 41  1  0  0  0  0
 20 42  1  0  0  0  0
 25 43  1  0  0  0  0
 25 44  1  0  0  0  0
 25 45  1  0  0  0  0
 29 46  1  0  0  0  0
 29 47  1  0  0  0  0
 30 48  1  0  0  0  0
 30 49  1  0  0  0  0
M  END
> <ID>
59

> <IC50[uM]>
1.126

$$$$
59
  -OEChem-05192314313D
 Structure written by MMmdl.
 49 53  0     0  0  0  0  0  0999 V2000
   94.8018   46.5109  266.7810 N   0  0  0  0  0  0  0  0  0  0  0  0
   95.5594   48.9562  267.9425 N   0  0  0  0  0  0  0  0  0  0  0  0
   96.4498   47.9500  267.7562 C   0  0  0  0  0  0  0  0  0  0  0  0
   96.0677   46.7343  267.2047 C   0  0  0  0  0  0  0  0  0  0  0  0
   94.2682   48.7611  267.5159 C   0  0  0  0  0  0  0  0  0  0  0  0
   93.8962   47.5221  266.9192 C   0  0  0  0  0  0  0  0  0  0  0  0
   92.5694   47.3244  266.4788 C   0  0  0  0  0  0  0  0  0  0  0  0
   91.6134   48.3190  266.6708 C   0  0  0  0  0  0  0  0  0  0  0  0
   91.9660   49.5150  267.2751 C   0  0  0  0  0  0  0  0  0  0  0  0
   93.2855   49.7790  267.6840 C   0  0  0  0  0  0  0  0  0  0  0  0
   93.5879   51.0782  268.3122 C   0  0  0  0  0  0  0  0  0  0  0  0
   90.2737   48.1142  266.3097 N   0  0  0  0  0  0  0  0  0  0  0  0
   94.5752   51.9225  267.7816 C   0  0  0  0  0  0  0  0  0  0  0  0
   94.8653   53.1505  268.3816 C   0  0  0  0  0  0  0  0  0  0  0  0
   92.8985   51.4691  269.4627 C   0  0  0  0  0  0  0  0  0  0  0  0
   89.7155   47.3452  265.2853 C   0  0  0  0  0  0  0  0  0  0  0  0
   90.4138   47.1285  264.0886 C   0  0  0  0  0  0  0  0  0  0  0  0
   89.9106   46.4419  263.0368 N   0  0  0  0  0  0  0  0  0  0  0  0
   88.6568   45.9347  263.1618 C   0  0  0  0  0  0  0  0  0  0  0  0
   87.8875   46.0867  264.3143 C   0  0  0  0  0  0  0  0  0  0  0  0
   88.4223   46.8005  265.3926 C   0  0  0  0  0  0  0  0  0  0  0  0
   87.4801   46.8993  266.9179 S   0  0  0  0  0  0  0  0  0  0  0  0
   86.1285   46.4001  266.6610 O   0  0  0  0  0  0  0  0  0  0  0  0
   87.6734   48.2433  267.4795 O   0  0  0  0  0  0  0  0  0  0  0  0
   88.3715   45.6618  268.0181 C   0  0  0  0  0  0  0  0  0  0  0  0
   93.1809   52.6785  270.0639 C   0  0  0  0  0  0  0  0  0  0  0  0
   94.1584   53.5252  269.5157 C   0  0  0  0  0  0  0  0  0  0  0  0
   94.4333   54.7672  270.0482 O   0  0  0  0  0  0  0  0  0  0  0  0
   94.0133   54.9117  271.4001 C   0  0  0  0  0  0  0  0  0  0  0  0
   92.5929   54.3553  271.5885 C   0  0  0  0  0  0  0  0  0  0  0  0
   92.5255   52.9762  271.2421 O   0  0  0  0  0  0  0  0  0  0  0  0
   97.4803   48.0979  268.0436 H   0  0  0  0  0  0  0  0  0  0  0  0
   96.8001   45.9461  267.1114 H   0  0  0  0  0  0  0  0  0  0  0  0
   92.6194   47.1377  265.3959 H   0  0  0  0  0  0  0  0  0  0  0  0
   92.1969   46.4240  266.9892 H   0  0  0  0  0  0  0  0  0  0  0  0
   91.2063   50.2655  267.4366 H   0  0  0  0  0  0  0  0  0  0  0  0
   95.1177   51.6193  266.8983 H   0  0  0  0  0  0  0  0  0  0  0  0
   95.6264   53.7969  267.9701 H   0  0  0  0  0  0  0  0  0  0  0  0
   92.1422   50.8227  269.8828 H   0  0  0  0  0  0  0  0  0  0  0  0
   91.4113   47.5332  264.0014 H   0  0  0  0  0  0  0  0  0  0  0  0
   88.2366   45.3886  262.3302 H   0  0  0  0  0  0  0  0  0  0  0  0
   86.8966   45.6613  264.3739 H   0  0  0  0  0  0  0  0  0  0  0  0
   87.8821   45.6266  269.0026 H   0  0  0  0  0  0  0  0  0  0  0  0
   88.3337   44.6651  267.5542 H   0  0  0  0  0  0  0  0  0  0  0  0
   89.4204   45.9696  268.1409 H   0  0  0  0  0  0  0  0  0  0  0  0
   94.7063   54.3625  272.0544 H   0  0  0  0  0  0  0  0  0  0  0  0
   94.0223   55.9782  271.6693 H   0  0  0  0  0  0  0  0  0  0  0  0
   92.2985   54.4747  272.6416 H   0  0  0  0  0  0  0  0  0  0  0  0
   91.8995   54.9197  270.9477 H   0  0  0  0  0  0  0  0  0  0  0  0
  1  4  2  0  0  0  0
  1  6  1  0  0  0  0
  2  3  2  0  0  0  0
  2  5  1  0  0  0  0
  3  4  1  0  0  0  0
  5  6  2  0  0  0  0
  5 10  1  0  0  0  0
  6  7  1  0  0  0  0
  7  8  1  0  0  0  0
  8  9  1  0  0  0  0
  8 12  2  3  0  0  0
  9 10  2  0  0  0  0
 10 11  1  0  0  0  0
 11 13  2  0  0  0  0
 11 15  1  0  0  0  0
 12 16  1  0  0  0  0
 13 14  1  0  0  0  0
 14 27  2  0  0  0  0
 15 26  2  0  0  0  0
 16 17  2  0  0  0  0
 16 21  1  0  0  0  0
 17 18  1  0  0  0  0
 18 19  2  0  0  0  0
 19 20  1  0  0  0  0
 20 21  2  0  0  0  0
 21 22  1  0  0  0  0
 22 23  2  0  0  0  0
 22 24  2  0  0  0  0
 22 25  1  0  0  0  0
 26 27  1  0  0  0  0
 26 31  1  0  0  0  0
 27 28  1  0  0  0  0
 28 29  1  0  0  0  0
 29 30  1  0  0  0  0
 30 31  1  0  0  0  0
  3 32  1  0  0  0  0
  4 33  1  0  0  0  0
  7 34  1  0  0  0  0
  7 35  1  0  0  0  0
  9 36  1  0  0  0  0
 13 37  1  0  0  0  0
 14 38  1  0  0  0  0
 15 39  1  0  0  0  0
 17 40  1  0  0  0  0
 19 41  1  0  0  0  0
 20 42  1  0  0  0  0
 25 43  1  0  0  0  0
 25 44  1  0  0  0  0
 25 45  1  0  0  0  0
 29 46  1  0  0  0  0
 29 47  1  0  0  0  0
 30 48  1  0  0  0  0
 30 49  1  0  0  0  0
M  END
> <ID>
59

> <IC50[uM]>
1.126

$$$$
59
  -OEChem-05192314313D
 Structure written by MMmdl.
 49 53  0     0  0  0  0  0  0999 V2000
   94.8018   46.5109  266.7810 N   0  0  0  0  0  0  0  0  0  0  0  0
   95.5594   48.9562  267.9425 N   0  0  0  0  0  0  0  0  0  0  0  0
   96.4498   47.9500  267.7562 C   0  0  0  0  0  0  0  0  0  0  0  0
   96.0677   46.7343  267.2047 C   0  0  0  0  0  0  0  0  0  0  0  0
   94.2682   48.7611  267.5159 C   0  0  0  0  0  0  0  0  0  0  0  0
   93.8962   47.5221  266.9192 C   0  0  0  0  0  0  0  0  0  0  0  0
   92.5694   47.3244  266.4788 C   0  0  0  0  0  0  0  0  0  0  0  0
   91.6134   48.3190  266.6708 C   0  0  0  0  0  0  0  0  0  0  0  0
   91.9660   49.5150  267.2751 C   0  0  0  0  0  0  0  0  0  0  0  0
   93.2855   49.7790  267.6840 C   0  0  0  0  0  0  0  0  0  0  0  0
   93.5879   51.0782  268.3122 C   0  0  0  0  0  0  0  0  0  0  0  0
   90.2737   48.1142  266.3097 N   0  0  0  0  0  0  0  0  0  0  0  0
   94.5752   51.9225  267.7816 C   0  0  0  0  0  0  0  0  0  0  0  0
   94.8653   53.1505  268.3816 C   0  0  0  0  0  0  0  0  0  0  0  0
   92.8985   51.4691  269.4627 C   0  0  0  0  0  0  0  0  0  0  0  0
   89.7155   47.3452  265.2853 C   0  0  0  0  0  0  0  0  0  0  0  0
   90.4138   47.1285  264.0886 C   0  0  0  0  0  0  0  0  0  0  0  0
   89.9106   46.4419  263.0368 N   0  0  0  0  0  0  0  0  0  0  0  0
   88.6568   45.9347  263.1618 C   0  0  0  0  0  0  0  0  0  0  0  0
   87.8875   46.0867  264.3143 C   0  0  0  0  0  0  0  0  0  0  0  0
   88.4223   46.8005  265.3926 C   0  0  0  0  0  0  0  0  0  0  0  0
   87.4801   46.8993  266.9179 S   0  0  0  0  0  0  0  0  0  0  0  0
   86.1285   46.4001  266.6610 O   0  0  0  0  0  0  0  0  0  0  0  0
   87.6734   48.2433  267.4795 O   0  0  0  0  0  0  0  0  0  0  0  0
   88.3715   45.6618  268.0181 C   0  0  0  0  0  0  0  0  0  0  0  0
   93.1809   52.6785  270.0639 C   0  0  0  0  0  0  0  0  0  0  0  0
   94.1584   53.5252  269.5157 C   0  0  0  0  0  0  0  0  0  0  0  0
   94.4333   54.7672  270.0482 O   0  0  0  0  0  0  0  0  0  0  0  0
   94.0133   54.9117  271.4001 C   0  0  0  0  0  0  0  0  0  0  0  0
   92.5929   54.3553  271.5885 C   0  0  0  0  0  0  0  0  0  0  0  0
   92.5255   52.9762  271.2421 O   0  0  0  0  0  0  0  0  0  0  0  0
   97.4803   48.0979  268.0436 H   0  0  0  0  0  0  0  0  0  0  0  0
   96.8001   45.9461  267.1114 H   0  0  0  0  0  0  0  0  0  0  0  0
   92.2952   46.4001  265.9920 H   0  0  0  0  0  0  0  0  0  0  0  0
   91.6981   50.3107  266.5644 H   0  0  0  0  0  0  0  0  0  0  0  0
   91.3405   49.6019  268.1758 H   0  0  0  0  0  0  0  0  0  0  0  0
   95.1177   51.6193  266.8983 H   0  0  0  0  0  0  0  0  0  0  0  0
   95.6264   53.7969  267.9701 H   0  0  0  0  0  0  0  0  0  0  0  0
   92.1422   50.8227  269.8828 H   0  0  0  0  0  0  0  0  0  0  0  0
   91.4113   47.5332  264.0014 H   0  0  0  0  0  0  0  0  0  0  0  0
   88.2366   45.3886  262.3302 H   0  0  0  0  0  0  0  0  0  0  0  0
   86.8966   45.6613  264.3739 H   0  0  0  0  0  0  0  0  0  0  0  0
   87.8821   45.6266  269.0026 H   0  0  0  0  0  0  0  0  0  0  0  0
   88.3337   44.6651  267.5542 H   0  0  0  0  0  0  0  0  0  0  0  0
   89.4204   45.9696  268.1409 H   0  0  0  0  0  0  0  0  0  0  0  0
   94.7063   54.3625  272.0544 H   0  0  0  0  0  0  0  0  0  0  0  0
   94.0223   55.9782  271.6693 H   0  0  0  0  0  0  0  0  0  0  0  0
   92.2985   54.4747  272.6416 H   0  0  0  0  0  0  0  0  0  0  0  0
   91.8995   54.9197  270.9477 H   0  0  0  0  0  0  0  0  0  0  0  0
  1  4  2  0  0  0  0
  1  6  1  0  0  0  0
  2  3  2  0  0  0  0
  2  5  1  0  0  0  0
  3  4  1  0  0  0  0
  5  6  1  0  0  0  0
  5 10  2  0  0  0  0
  6  7  2  0  0  0  0
  7  8  1  0  0  0  0
  8  9  1  0  0  0  0
  8 12  2  3  0  0  0
  9 10  1  0  0  0  0
 10 11  1  0  0  0  0
 11 13  2  0  0  0  0
 11 15  1  0  0  0  0
 12 16  1  0  0  0  0
 13 14  1  0  0  0  0
 14 27  2  0  0  0  0
 15 26  2  0  0  0  0
 16 17  2  0  0  0  0
 16 21  1  0  0  0  0
 17 18  1  0  0  0  0
 18 19  2  0  0  0  0
 19 20  1  0  0  0  0
 20 21  2  0  0  0  0
 21 22  1  0  0  0  0
 22 23  2  0  0  0  0
 22 24  2  0  0  0  0
 22 25  1  0  0  0  0
 26 27  1  0  0  0  0
 26 31  1  0  0  0  0
 27 28  1  0  0  0  0
 28 29  1  0  0  0  0
 29 30  1  0  0  0  0
 30 31  1  0  0  0  0
  3 32  1  0  0  0  0
  4 33  1  0  0  0  0
  7 34  1  0  0  0  0
  9 35  1  0  0  0  0
  9 36  1  0  0  0  0
 13 37  1  0  0  0  0
 14 38  1  0  0  0  0
 15 39  1  0  0  0  0
 17 40  1  0  0  0  0
 19 41  1  0  0  0  0
 20 42  1  0  0  0  0
 25 43  1  0  0  0  0
 25 44  1  0  0  0  0
 25 45  1  0  0  0  0
 29 46  1  0  0  0  0
 29 47  1  0  0  0  0
 30 48  1  0  0  0  0
 30 49  1  0  0  0  0
M  END
> <ID>
59

> <IC50[uM]>
1.126

$$$$
59
  -OEChem-05192314313D
 Structure written by MMmdl.
 49 53  0     1  0  0  0  0  0999 V2000
   94.8018   46.5109  266.7810 N   0  0  0  0  0  0  0  0  0  0  0  0
   95.5594   48.9562  267.9425 N   0  0  0  0  0  0  0  0  0  0  0  0
   96.4498   47.9500  267.7562 C   0  0  0  0  0  0  0  0  0  0  0  0
   96.0677   46.7343  267.2047 C   0  0  0  0  0  0  0  0  0  0  0  0
   94.2682   48.7611  267.5159 C   0  0  0  0  0  0  0  0  0  0  0  0
   93.8962   47.5221  266.9192 C   0  0  0  0  0  0  0  0  0  0  0  0
   92.5694   47.3244  266.4788 C   0  0  0  0  0  0  0  0  0  0  0  0
   91.6134   48.3190  266.6708 C   0  0  0  0  0  0  0  0  0  0  0  0
   91.9660   49.5150  267.2751 C   0  0  0  0  0  0  0  0  0  0  0  0
   93.2855   49.7790  267.6840 C   0  0  0  0  0  0  0  0  0  0  0  0
   93.5879   51.0782  268.3122 C   0  0  0  0  0  0  0  0  0  0  0  0
   90.2737   48.1142  266.3097 N   0  0  0  0  0  0  0  0  0  0  0  0
   94.5752   51.9225  267.7816 C   0  0  0  0  0  0  0  0  0  0  0  0
   94.8653   53.1505  268.3816 C   0  0  0  0  0  0  0  0  0  0  0  0
   92.8985   51.4691  269.4627 C   0  0  0  0  0  0  0  0  0  0  0  0
   89.7155   47.3452  265.2853 C   0  0  0  0  0  0  0  0  0  0  0  0
   90.4138   47.1285  264.0886 C   0  0  0  0  0  0  0  0  0  0  0  0
   89.9106   46.4419  263.0368 N   0  0  0  0  0  0  0  0  0  0  0  0
   88.6568   45.9347  263.1618 C   0  0  0  0  0  0  0  0  0  0  0  0
   87.8875   46.0867  264.3143 C   0  0  0  0  0  0  0  0  0  0  0  0
   88.4223   46.8005  265.3926 C   0  0  3  0  0  0  0  0  0  0  0  0
   87.4801   46.8993  266.9179 S   0  0  0  0  0  0  0  0  0  0  0  0
   86.1285   46.4001  266.6610 O   0  0  0  0  0  0  0  0  0  0  0  0
   87.6734   48.2433  267.4795 O   0  0  0  0  0  0  0  0  0  0  0  0
   88.3715   45.6618  268.0181 C   0  0  0  0  0  0  0  0  0  0  0  0
   93.1809   52.6785  270.0639 C   0  0  0  0  0  0  0  0  0  0  0  0
   94.1584   53.5252  269.5157 C   0  0  0  0  0  0  0  0  0  0  0  0
   94.4333   54.7672  270.0482 O   0  0  0  0  0  0  0  0  0  0  0  0
   94.0133   54.9117  271.4001 C   0  0  0  0  0  0  0  0  0  0  0  0
   92.5929   54.3553  271.5885 C   0  0  0  0  0  0  0  0  0  0  0  0
   92.5255   52.9762  271.2421 O   0  0  0  0  0  0  0  0  0  0  0  0
   97.4803   48.0979  268.0436 H   0  0  0  0  0  0  0  0  0  0  0  0
   96.8001   45.9461  267.1114 H   0  0  0  0  0  0  0  0  0  0  0  0
   92.2952   46.4001  265.9920 H   0  0  0  0  0  0  0  0  0  0  0  0
   91.2063   50.2655  267.4366 H   0  0  0  0  0  0  0  0  0  0  0  0
   95.1177   51.6193  266.8983 H   0  0  0  0  0  0  0  0  0  0  0  0
   95.6264   53.7969  267.9701 H   0  0  0  0  0  0  0  0  0  0  0  0
   92.1422   50.8227  269.8828 H   0  0  0  0  0  0  0  0  0  0  0  0
   91.4113   47.5332  264.0014 H   0  0  0  0  0  0  0  0  0  0  0  0
   88.2366   45.3886  262.3302 H   0  0  0  0  0  0  0  0  0  0  0  0
   86.8966   45.6613  264.3739 H   0  0  0  0  0  0  0  0  0  0  0  0
   87.9709   47.7358  265.0301 H   0  0  0  0  0  0  0  0  0  0  0  0
   87.8821   45.6266  269.0026 H   0  0  0  0  0  0  0  0  0  0  0  0
   88.3337   44.6651  267.5542 H   0  0  0  0  0  0  0  0  0  0  0  0
   89.4204   45.9696  268.1409 H   0  0  0  0  0  0  0  0  0  0  0  0
   94.7063   54.3625  272.0544 H   0  0  0  0  0  0  0  0  0  0  0  0
   94.0223   55.9782  271.6693 H   0  0  0  0  0  0  0  0  0  0  0  0
   92.2985   54.4747  272.6416 H   0  0  0  0  0  0  0  0  0  0  0  0
   91.8995   54.9197  270.9477 H   0  0  0  0  0  0  0  0  0  0  0  0
  1  4  2  0  0  0  0
  1  6  1  0  0  0  0
  2  3  2  0  0  0  0
  2  5  1  0  0  0  0
  3  4  1  0  0  0  0
  5  6  2  0  0  0  0
  5 10  1  0  0  0  0
  6  7  1  0  0  0  0
  7  8  2  0  0  0  0
  8  9  1  0  0  0  0
  8 12  1  0  0  0  0
  9 10  2  0  0  0  0
 10 11  1  0  0  0  0
 11 13  2  0  0  0  0
 11 15  1  0  0  0  0
 12 16  2  0  0  0  0
 13 14  1  0  0  0  0
 14 27  2  0  0  0  0
 15 26  2  0  0  0  0
 16 17  1  0  0  0  0
 16 21  1  0  0  0  0
 17 18  2  0  0  0  0
 18 19  1  0  0  0  0
 19 20  2  0  0  0  0
 20 21  1  0  0  0  0
 21 22  1  0  0  0  0
 22 23  2  0  0  0  0
 22 24  2  0  0  0  0
 22 25  1  0  0  0  0
 26 27  1  0  0  0  0
 26 31  1  0  0  0  0
 27 28  1  0  0  0  0
 28 29  1  0  0  0  0
 29 30  1  0  0  0  0
 30 31  1  0  0  0  0
  3 32  1  0  0  0  0
  4 33  1  0  0  0  0
  7 34  1  0  0  0  0
  9 35  1  0  0  0  0
 13 36  1  0  0  0  0
 14 37  1  0  0  0  0
 15 38  1  0  0  0  0
 17 39  1  0  0  0  0
 19 40  1  0  0  0  0
 20 41  1  0  0  0  0
 21 42  1  0  0  0  0
 25 43  1  0  0  0  0
 25 44  1  0  0  0  0
 25 45  1  0  0  0  0
 29 46  1  0  0  0  0
 29 47  1  0  0  0  0
 30 48  1  0  0  0  0
 30 49  1  0  0  0  0
M  END
> <ID>
59

> <IC50[uM]>
1.126

$$$$
59
  -OEChem-05192314313D
 Structure written by MMmdl.
 49 53  0     0  0  0  0  0  0999 V2000
   94.8018   46.5109  266.7810 N   0  0  0  0  0  0  0  0  0  0  0  0
   95.5594   48.9562  267.9425 N   0  0  0  0  0  0  0  0  0  0  0  0
   96.4498   47.9500  267.7562 C   0  0  0  0  0  0  0  0  0  0  0  0
   96.0677   46.7343  267.2047 C   0  0  0  0  0  0  0  0  0  0  0  0
   94.2682   48.7611  267.5159 C   0  0  0  0  0  0  0  0  0  0  0  0
   93.8962   47.5221  266.9192 C   0  0  0  0  0  0  0  0  0  0  0  0
   92.5694   47.3244  266.4788 C   0  0  0  0  0  0  0  0  0  0  0  0
   91.6134   48.3190  266.6708 C   0  0  0  0  0  0  0  0  0  0  0  0
   91.9660   49.5150  267.2751 C   0  0  0  0  0  0  0  0  0  0  0  0
   93.2855   49.7790  267.6840 C   0  0  0  0  0  0  0  0  0  0  0  0
   93.5879   51.0782  268.3122 C   0  0  0  0  0  0  0  0  0  0  0  0
   90.2737   48.1142  266.3097 N   0  0  0  0  0  0  0  0  0  0  0  0
   94.5752   51.9225  267.7816 C   0  0  0  0  0  0  0  0  0  0  0  0
   94.8653   53.1505  268.3816 C   0  0  0  0  0  0  0  0  0  0  0  0
   92.8985   51.4691  269.4627 C   0  0  0  0  0  0  0  0  0  0  0  0
   89.7155   47.3452  265.2853 C   0  0  0  0  0  0  0  0  0  0  0  0
   90.4138   47.1285  264.0886 C   0  0  0  0  0  0  0  0  0  0  0  0
   89.9106   46.4419  263.0368 N   0  0  0  0  0  0  0  0  0  0  0  0
   88.6568   45.9347  263.1618 C   0  0  0  0  0  0  0  0  0  0  0  0
   87.8875   46.0867  264.3143 C   0  0  0  0  0  0  0  0  0  0  0  0
   88.4223   46.8005  265.3926 C   0  0  0  0  0  0  0  0  0  0  0  0
   87.4801   46.8993  266.9179 S   0  0  0  0  0  0  0  0  0  0  0  0
   86.1285   46.4001  266.6610 O   0  0  0  0  0  0  0  0  0  0  0  0
   87.6734   48.2433  267.4795 O   0  0  0  0  0  0  0  0  0  0  0  0
   88.3715   45.6618  268.0181 C   0  0  0  0  0  0  0  0  0  0  0  0
   93.1809   52.6785  270.0639 C   0  0  0  0  0  0  0  0  0  0  0  0
   94.1584   53.5252  269.5157 C   0  0  0  0  0  0  0  0  0  0  0  0
   94.4333   54.7672  270.0482 O   0  0  0  0  0  0  0  0  0  0  0  0
   94.0133   54.9117  271.4001 C   0  0  0  0  0  0  0  0  0  0  0  0
   92.5929   54.3553  271.5885 C   0  0  0  0  0  0  0  0  0  0  0  0
   92.5255   52.9762  271.2421 O   0  0  0  0  0  0  0  0  0  0  0  0
   97.4803   48.0979  268.0436 H   0  0  0  0  0  0  0  0  0  0  0  0
   96.8001   45.9461  267.1114 H   0  0  0  0  0  0  0  0  0  0  0  0
   92.2952   46.4001  265.9920 H   0  0  0  0  0  0  0  0  0  0  0  0
   91.2063   50.2655  267.4366 H   0  0  0  0  0  0  0  0  0  0  0  0
   95.1177   51.6193  266.8983 H   0  0  0  0  0  0  0  0  0  0  0  0
   95.6264   53.7969  267.9701 H   0  0  0  0  0  0  0  0  0  0  0  0
   92.1422   50.8227  269.8828 H   0  0  0  0  0  0  0  0  0  0  0  0
   91.4113   47.5332  264.0014 H   0  0  0  0  0  0  0  0  0  0  0  0
   88.0683   46.3766  262.3442 H   0  0  0  0  0  0  0  0  0  0  0  0
   88.7511   44.8506  263.0013 H   0  0  0  0  0  0  0  0  0  0  0  0
   86.8966   45.6613  264.3739 H   0  0  0  0  0  0  0  0  0  0  0  0
   87.8821   45.6266  269.0026 H   0  0  0  0  0  0  0  0  0  0  0  0
   88.3337   44.6651  267.5542 H   0  0  0  0  0  0  0  0  0  0  0  0
   89.4204   45.9696  268.1409 H   0  0  0  0  0  0  0  0  0  0  0  0
   94.7063   54.3625  272.0544 H   0  0  0  0  0  0  0  0  0  0  0  0
   94.0223   55.9782  271.6693 H   0  0  0  0  0  0  0  0  0  0  0  0
   92.2985   54.4747  272.6416 H   0  0  0  0  0  0  0  0  0  0  0  0
   91.8995   54.9197  270.9477 H   0  0  0  0  0  0  0  0  0  0  0  0
  1  4  2  0  0  0  0
  1  6  1  0  0  0  0
  2  3  2  0  0  0  0
  2  5  1  0  0  0  0
  3  4  1  0  0  0  0
  5  6  2  0  0  0  0
  5 10  1  0  0  0  0
  6  7  1  0  0  0  0
  7  8  2  0  0  0  0
  8  9  1  0  0  0  0
  8 12  1  0  0  0  0
  9 10  2  0  0  0  0
 10 11  1  0  0  0  0
 11 13  2  0  0  0  0
 11 15  1  0  0  0  0
 12 16  2  0  0  0  0
 13 14  1  0  0  0  0
 14 27  2  0  0  0  0
 15 26  2  0  0  0  0
 16 17  1  0  0  0  0
 16 21  1  0  0  0  0
 17 18  2  0  0  0  0
 18 19  1  0  0  0  0
 19 20  1  0  0  0  0
 20 21  2  0  0  0  0
 21 22  1  0  0  0  0
 22 23  2  0  0  0  0
 22 24  2  0  0  0  0
 22 25  1  0  0  0  0
 26 27  1  0  0  0  0
 26 31  1  0  0  0  0
 27 28  1  0  0  0  0
 28 29  1  0  0  0  0
 29 30  1  0  0  0  0
 30 31  1  0  0  0  0
  3 32  1  0  0  0  0
  4 33  1  0  0  0  0
  7 34  1  0  0  0  0
  9 35  1  0  0  0  0
 13 36  1  0  0  0  0
 14 37  1  0  0  0  0
 15 38  1  0  0  0  0
 17 39  1  0  0  0  0
 19 40  1  0  0  0  0
 19 41  1  0  0  0  0
 20 42  1  0  0  0  0
 25 43  1  0  0  0  0
 25 44  1  0  0  0  0
 25 45  1  0  0  0  0
 29 46  1  0  0  0  0
 29 47  1  0  0  0  0
 30 48  1  0  0  0  0
 30 49  1  0  0  0  0
M  END
> <ID>
59

> <IC50[uM]>
1.126

$$$$
59
  -OEChem-05192314313D
 Structure written by MMmdl.
 49 53  0     0  0  0  0  0  0999 V2000
   94.8018   46.5109  266.7810 N   0  0  0  0  0  0  0  0  0  0  0  0
   95.5594   48.9562  267.9425 N   0  0  0  0  0  0  0  0  0  0  0  0
   96.4498   47.9500  267.7562 C   0  0  0  0  0  0  0  0  0  0  0  0
   96.0677   46.7343  267.2047 C   0  0  0  0  0  0  0  0  0  0  0  0
   94.2682   48.7611  267.5159 C   0  0  0  0  0  0  0  0  0  0  0  0
   93.8962   47.5221  266.9192 C   0  0  0  0  0  0  0  0  0  0  0  0
   92.5694   47.3244  266.4788 C   0  0  0  0  0  0  0  0  0  0  0  0
   91.6134   48.3190  266.6708 C   0  0  0  0  0  0  0  0  0  0  0  0
   91.9660   49.5150  267.2751 C   0  0  0  0  0  0  0  0  0  0  0  0
   93.2855   49.7790  267.6840 C   0  0  0  0  0  0  0  0  0  0  0  0
   93.5879   51.0782  268.3122 C   0  0  0  0  0  0  0  0  0  0  0  0
   90.2737   48.1142  266.3097 N   0  0  0  0  0  0  0  0  0  0  0  0
   94.5752   51.9225  267.7816 C   0  0  0  0  0  0  0  0  0  0  0  0
   94.8653   53.1505  268.3816 C   0  0  0  0  0  0  0  0  0  0  0  0
   92.8985   51.4691  269.4627 C   0  0  0  0  0  0  0  0  0  0  0  0
   89.7155   47.3452  265.2853 C   0  0  0  0  0  0  0  0  0  0  0  0
   90.4138   47.1285  264.0886 C   0  0  0  0  0  0  0  0  0  0  0  0
   89.9106   46.4419  263.0368 N   0  0  0  0  0  0  0  0  0  0  0  0
   88.6568   45.9347  263.1618 C   0  0  0  0  0  0  0  0  0  0  0  0
   87.8875   46.0867  264.3143 C   0  0  0  0  0  0  0  0  0  0  0  0
   88.4223   46.8005  265.3926 C   0  0  0  0  0  0  0  0  0  0  0  0
   87.4801   46.8993  266.9179 S   0  0  0  0  0  0  0  0  0  0  0  0
   86.1285   46.4001  266.6610 O   0  0  0  0  0  0  0  0  0  0  0  0
   87.6734   48.2433  267.4795 O   0  0  0  0  0  0  0  0  0  0  0  0
   88.3715   45.6618  268.0181 C   0  0  0  0  0  0  0  0  0  0  0  0
   93.1809   52.6785  270.0639 C   0  0  0  0  0  0  0  0  0  0  0  0
   94.1584   53.5252  269.5157 C   0  0  0  0  0  0  0  0  0  0  0  0
   94.4333   54.7672  270.0482 O   0  0  0  0  0  0  0  0  0  0  0  0
   94.0133   54.9117  271.4001 C   0  0  0  0  0  0  0  0  0  0  0  0
   92.5929   54.3553  271.5885 C   0  0  0  0  0  0  0  0  0  0  0  0
   92.5255   52.9762  271.2421 O   0  0  0  0  0  0  0  0  0  0  0  0
   97.4803   48.0979  268.0436 H   0  0  0  0  0  0  0  0  0  0  0  0
   96.8001   45.9461  267.1114 H   0  0  0  0  0  0  0  0  0  0  0  0
   92.2952   46.4001  265.9920 H   0  0  0  0  0  0  0  0  0  0  0  0
   91.2063   50.2655  267.4366 H   0  0  0  0  0  0  0  0  0  0  0  0
   95.1177   51.6193  266.8983 H   0  0  0  0  0  0  0  0  0  0  0  0
   95.6264   53.7969  267.9701 H   0  0  0  0  0  0  0  0  0  0  0  0
   92.1422   50.8227  269.8828 H   0  0  0  0  0  0  0  0  0  0  0  0
   90.6621   48.1280  263.7021 H   0  0  0  0  0  0  0  0  0  0  0  0
   91.3386   46.6050  264.3726 H   0  0  0  0  0  0  0  0  0  0  0  0
   88.2366   45.3886  262.3302 H   0  0  0  0  0  0  0  0  0  0  0  0
   86.8966   45.6613  264.3739 H   0  0  0  0  0  0  0  0  0  0  0  0
   87.8821   45.6266  269.0026 H   0  0  0  0  0  0  0  0  0  0  0  0
   88.3337   44.6651  267.5542 H   0  0  0  0  0  0  0  0  0  0  0  0
   89.4204   45.9696  268.1409 H   0  0  0  0  0  0  0  0  0  0  0  0
   94.7063   54.3625  272.0544 H   0  0  0  0  0  0  0  0  0  0  0  0
   94.0223   55.9782  271.6693 H   0  0  0  0  0  0  0  0  0  0  0  0
   92.2985   54.4747  272.6416 H   0  0  0  0  0  0  0  0  0  0  0  0
   91.8995   54.9197  270.9477 H   0  0  0  0  0  0  0  0  0  0  0  0
  1  4  2  0  0  0  0
  1  6  1  0  0  0  0
  2  3  2  0  0  0  0
  2  5  1  0  0  0  0
  3  4  1  0  0  0  0
  5  6  2  0  0  0  0
  5 10  1  0  0  0  0
  6  7  1  0  0  0  0
  7  8  2  0  0  0  0
  8  9  1  0  0  0  0
  8 12  1  0  0  0  0
  9 10  2  0  0  0  0
 10 11  1  0  0  0  0
 11 13  2  0  0  0  0
 11 15  1  0  0  0  0
 12 16  2  0  0  0  0
 13 14  1  0  0  0  0
 14 27  2  0  0  0  0
 15 26  2  0  0  0  0
 16 17  1  0  0  0  0
 16 21  1  0  0  0  0
 17 18  1  0  0  0  0
 18 19  2  0  0  0  0
 19 20  1  0  0  0  0
 20 21  2  0  0  0  0
 21 22  1  0  0  0  0
 22 23  2  0  0  0  0
 22 24  2  0  0  0  0
 22 25  1  0  0  0  0
 26 27  1  0  0  0  0
 26 31  1  0  0  0  0
 27 28  1  0  0  0  0
 28 29  1  0  0  0  0
 29 30  1  0  0  0  0
 30 31  1  0  0  0  0
  3 32  1  0  0  0  0
  4 33  1  0  0  0  0
  7 34  1  0  0  0  0
  9 35  1  0  0  0  0
 13 36  1  0  0  0  0
 14 37  1  0  0  0  0
 15 38  1  0  0  0  0
 17 39  1  0  0  0  0
 17 40  1  0  0  0  0
 19 41  1  0  0  0  0
 20 42  1  0  0  0  0
 25 43  1  0  0  0  0
 25 44  1  0  0  0  0
 25 45  1  0  0  0  0
 29 46  1  0  0  0  0
 29 47  1  0  0  0  0
 30 48  1  0  0  0  0
 30 49  1  0  0  0  0
M  END
> <ID>
59

> <IC50[uM]>
1.126

$$$$
59
  -OEChem-05192314313D
 Structure written by MMmdl.
 49 53  0     1  0  0  0  0  0999 V2000
   94.8018   46.5109  266.7810 N   0  0  0  0  0  0  0  0  0  0  0  0
   95.5594   48.9562  267.9425 N   0  0  0  0  0  0  0  0  0  0  0  0
   96.4498   47.9500  267.7562 C   0  0  0  0  0  0  0  0  0  0  0  0
   96.0677   46.7343  267.2047 C   0  0  0  0  0  0  0  0  0  0  0  0
   94.2682   48.7611  267.5159 C   0  0  3  0  0  0  0  0  0  0  0  0
   93.8962   47.5221  266.9192 C   0  0  0  0  0  0  0  0  0  0  0  0
   92.5694   47.3244  266.4788 C   0  0  0  0  0  0  0  0  0  0  0  0
   91.6134   48.3190  266.6708 C   0  0  0  0  0  0  0  0  0  0  0  0
   91.9660   49.5150  267.2751 C   0  0  0  0  0  0  0  0  0  0  0  0
   93.2855   49.7790  267.6840 C   0  0  0  0  0  0  0  0  0  0  0  0
   93.5879   51.0782  268.3122 C   0  0  0  0  0  0  0  0  0  0  0  0
   90.2737   48.1142  266.3097 N   0  0  0  0  0  0  0  0  0  0  0  0
   94.5752   51.9225  267.7816 C   0  0  0  0  0  0  0  0  0  0  0  0
   94.8653   53.1505  268.3816 C   0  0  0  0  0  0  0  0  0  0  0  0
   92.8985   51.4691  269.4627 C   0  0  0  0  0  0  0  0  0  0  0  0
   89.7155   47.3452  265.2853 C   0  0  0  0  0  0  0  0  0  0  0  0
   90.4138   47.1285  264.0886 C   0  0  0  0  0  0  0  0  0  0  0  0
   89.9106   46.4419  263.0368 N   0  0  0  0  0  0  0  0  0  0  0  0
   88.6568   45.9347  263.1618 C   0  0  0  0  0  0  0  0  0  0  0  0
   87.8875   46.0867  264.3143 C   0  0  0  0  0  0  0  0  0  0  0  0
   88.4223   46.8005  265.3926 C   0  0  0  0  0  0  0  0  0  0  0  0
   87.4801   46.8993  266.9179 S   0  0  0  0  0  0  0  0  0  0  0  0
   86.1285   46.4001  266.6610 O   0  0  0  0  0  0  0  0  0  0  0  0
   87.6734   48.2433  267.4795 O   0  0  0  0  0  0  0  0  0  0  0  0
   88.3715   45.6618  268.0181 C   0  0  0  0  0  0  0  0  0  0  0  0
   93.1809   52.6785  270.0639 C   0  0  0  0  0  0  0  0  0  0  0  0
   94.1584   53.5252  269.5157 C   0  0  0  0  0  0  0  0  0  0  0  0
   94.4333   54.7672  270.0482 O   0  0  0  0  0  0  0  0  0  0  0  0
   94.0133   54.9117  271.4001 C   0  0  0  0  0  0  0  0  0  0  0  0
   92.5929   54.3553  271.5885 C   0  0  0  0  0  0  0  0  0  0  0  0
   92.5255   52.9762  271.2421 O   0  0  0  0  0  0  0  0  0  0  0  0
   97.4803   48.0979  268.0436 H   0  0  0  0  0  0  0  0  0  0  0  0
   96.8001   45.9461  267.1114 H   0  0  0  0  0  0  0  0  0  0  0  0
   94.5273   49.1664  266.5267 H   0  0  0  0  0  0  0  0  0  0  0  0
   92.2952   46.4001  265.9920 H   0  0  0  0  0  0  0  0  0  0  0  0
   91.2063   50.2655  267.4366 H   0  0  0  0  0  0  0  0  0  0  0  0
   95.1177   51.6193  266.8983 H   0  0  0  0  0  0  0  0  0  0  0  0
   95.6264   53.7969  267.9701 H   0  0  0  0  0  0  0  0  0  0  0  0
   92.1422   50.8227  269.8828 H   0  0  0  0  0  0  0  0  0  0  0  0
   91.4113   47.5332  264.0014 H   0  0  0  0  0  0  0  0  0  0  0  0
   88.2366   45.3886  262.3302 H   0  0  0  0  0  0  0  0  0  0  0  0
   86.8966   45.6613  264.3739 H   0  0  0  0  0  0  0  0  0  0  0  0
   87.8821   45.6266  269.0026 H   0  0  0  0  0  0  0  0  0  0  0  0
   88.3337   44.6651  267.5542 H   0  0  0  0  0  0  0  0  0  0  0  0
   89.4204   45.9696  268.1409 H   0  0  0  0  0  0  0  0  0  0  0  0
   94.7063   54.3625  272.0544 H   0  0  0  0  0  0  0  0  0  0  0  0
   94.0223   55.9782  271.6693 H   0  0  0  0  0  0  0  0  0  0  0  0
   92.2985   54.4747  272.6416 H   0  0  0  0  0  0  0  0  0  0  0  0
   91.8995   54.9197  270.9477 H   0  0  0  0  0  0  0  0  0  0  0  0
  1  4  2  0  0  0  0
  1  6  1  0  0  0  0
  2  3  2  0  0  0  0
  2  5  1  0  0  0  0
  3  4  1  0  0  0  0
  5  6  1  0  0  0  0
  5 10  1  0  0  0  0
  6  7  2  0  0  0  0
  7  8  1  0  0  0  0
  8  9  1  0  0  0  0
  8 12  2  3  0  0  0
  9 10  2  0  0  0  0
 10 11  1  0  0  0  0
 11 13  2  0  0  0  0
 11 15  1  0  0  0  0
 12 16  1  0  0  0  0
 13 14  1  0  0  0  0
 14 27  2  0  0  0  0
 15 26  2  0  0  0  0
 16 17  2  0  0  0  0
 16 21  1  0  0  0  0
 17 18  1  0  0  0  0
 18 19  2  0  0  0  0
 19 20  1  0  0  0  0
 20 21  2  0  0  0  0
 21 22  1  0  0  0  0
 22 23  2  0  0  0  0
 22 24  2  0  0  0  0
 22 25  1  0  0  0  0
 26 27  1  0  0  0  0
 26 31  1  0  0  0  0
 27 28  1  0  0  0  0
 28 29  1  0  0  0  0
 29 30  1  0  0  0  0
 30 31  1  0  0  0  0
  3 32  1  0  0  0  0
  4 33  1  0  0  0  0
  5 34  1  0  0  0  0
  7 35  1  0  0  0  0
  9 36  1  0  0  0  0
 13 37  1  0  0  0  0
 14 38  1  0  0  0  0
 15 39  1  0  0  0  0
 17 40  1  0  0  0  0
 19 41  1  0  0  0  0
 20 42  1  0  0  0  0
 25 43  1  0  0  0  0
 25 44  1  0  0  0  0
 25 45  1  0  0  0  0
 29 46  1  0  0  0  0
 29 47  1  0  0  0  0
 30 48  1  0  0  0  0
 30 49  1  0  0  0  0
M  END
> <ID>
59

> <IC50[uM]>
1.126

$$$$
59
  -OEChem-05192314313D
 Structure written by MMmdl.
 49 53  0     0  0  0  0  0  0999 V2000
   94.8018   46.5109  266.7810 N   0  0  0  0  0  0  0  0  0  0  0  0
   95.5594   48.9562  267.9425 N   0  0  0  0  0  0  0  0  0  0  0  0
   96.4498   47.9500  267.7562 C   0  0  0  0  0  0  0  0  0  0  0  0
   96.0677   46.7343  267.2047 C   0  0  0  0  0  0  0  0  0  0  0  0
   94.2682   48.7611  267.5159 C   0  0  0  0  0  0  0  0  0  0  0  0
   93.8962   47.5221  266.9192 C   0  0  0  0  0  0  0  0  0  0  0  0
   92.5694   47.3244  266.4788 C   0  0  0  0  0  0  0  0  0  0  0  0
   91.6134   48.3190  266.6708 C   0  0  0  0  0  0  0  0  0  0  0  0
   91.9660   49.5150  267.2751 C   0  0  0  0  0  0  0  0  0  0  0  0
   93.2855   49.7790  267.6840 C   0  0  0  0  0  0  0  0  0  0  0  0
   93.5879   51.0782  268.3122 C   0  0  0  0  0  0  0  0  0  0  0  0
   90.2737   48.1142  266.3097 N   0  0  0  0  0  0  0  0  0  0  0  0
   94.5752   51.9225  267.7816 C   0  0  0  0  0  0  0  0  0  0  0  0
   94.8653   53.1505  268.3816 C   0  0  0  0  0  0  0  0  0  0  0  0
   92.8985   51.4691  269.4627 C   0  0  0  0  0  0  0  0  0  0  0  0
   89.7155   47.3452  265.2853 C   0  0  0  0  0  0  0  0  0  0  0  0
   90.4138   47.1285  264.0886 C   0  0  0  0  0  0  0  0  0  0  0  0
   89.9106   46.4419  263.0368 N   0  0  0  0  0  0  0  0  0  0  0  0
   88.6568   45.9347  263.1618 C   0  0  0  0  0  0  0  0  0  0  0  0
   87.8875   46.0867  264.3143 C   0  0  0  0  0  0  0  0  0  0  0  0
   88.4223   46.8005  265.3926 C   0  0  0  0  0  0  0  0  0  0  0  0
   87.4801   46.8993  266.9179 S   0  0  0  0  0  0  0  0  0  0  0  0
   86.1285   46.4001  266.6610 O   0  0  0  0  0  0  0  0  0  0  0  0
   87.6734   48.2433  267.4795 O   0  0  0  0  0  0  0  0  0  0  0  0
   88.3715   45.6618  268.0181 C   0  0  0  0  0  0  0  0  0  0  0  0
   93.1809   52.6785  270.0639 C   0  0  0  0  0  0  0  0  0  0  0  0
   94.1584   53.5252  269.5157 C   0  0  0  0  0  0  0  0  0  0  0  0
   94.4333   54.7672  270.0482 O   0  0  0  0  0  0  0  0  0  0  0  0
   94.0133   54.9117  271.4001 C   0  0  0  0  0  0  0  0  0  0  0  0
   92.5929   54.3553  271.5885 C   0  0  0  0  0  0  0  0  0  0  0  0
   92.5255   52.9762  271.2421 O   0  0  0  0  0  0  0  0  0  0  0  0
   97.2396   48.3516  267.1043 H   0  0  0  0  0  0  0  0  0  0  0  0
   96.8720   47.7224  268.7461 H   0  0  0  0  0  0  0  0  0  0  0  0
   96.8001   45.9461  267.1114 H   0  0  0  0  0  0  0  0  0  0  0  0
   92.2952   46.4001  265.9920 H   0  0  0  0  0  0  0  0  0  0  0  0
   91.2063   50.2655  267.4366 H   0  0  0  0  0  0  0  0  0  0  0  0
   95.1177   51.6193  266.8983 H   0  0  0  0  0  0  0  0  0  0  0  0
   95.6264   53.7969  267.9701 H   0  0  0  0  0  0  0  0  0  0  0  0
   92.1422   50.8227  269.8828 H   0  0  0  0  0  0  0  0  0  0  0  0
   91.4113   47.5332  264.0014 H   0  0  0  0  0  0  0  0  0  0  0  0
   88.2366   45.3886  262.3302 H   0  0  0  0  0  0  0  0  0  0  0  0
   86.8966   45.6613  264.3739 H   0  0  0  0  0  0  0  0  0  0  0  0
   87.8821   45.6266  269.0026 H   0  0  0  0  0  0  0  0  0  0  0  0
   88.3337   44.6651  267.5542 H   0  0  0  0  0  0  0  0  0  0  0  0
   89.4204   45.9696  268.1409 H   0  0  0  0  0  0  0  0  0  0  0  0
   94.7063   54.3625  272.0544 H   0  0  0  0  0  0  0  0  0  0  0  0
   94.0223   55.9782  271.6693 H   0  0  0  0  0  0  0  0  0  0  0  0
   92.2985   54.4747  272.6416 H   0  0  0  0  0  0  0  0  0  0  0  0
   91.8995   54.9197  270.9477 H   0  0  0  0  0  0  0  0  0  0  0  0
  1  4  2  0  0  0  0
  1  6  1  0  0  0  0
  2  3  1  0  0  0  0
  2  5  2  0  0  0  0
  3  4  1  0  0  0  0
  5  6  1  0  0  0  0
  5 10  1  0  0  0  0
  6  7  2  0  0  0  0
  7  8  1  0  0  0  0
  8  9  1  0  0  0  0
  8 12  2  3  0  0  0
  9 10  2  0  0  0  0
 10 11  1  0  0  0  0
 11 13  2  0  0  0  0
 11 15  1  0  0  0  0
 12 16  1  0  0  0  0
 13 14  1  0  0  0  0
 14 27  2  0  0  0  0
 15 26  2  0  0  0  0
 16 17  2  0  0  0  0
 16 21  1  0  0  0  0
 17 18  1  0  0  0  0
 18 19  2  0  0  0  0
 19 20  1  0  0  0  0
 20 21  2  0  0  0  0
 21 22  1  0  0  0  0
 22 23  2  0  0  0  0
 22 24  2  0  0  0  0
 22 25  1  0  0  0  0
 26 27  1  0  0  0  0
 26 31  1  0  0  0  0
 27 28  1  0  0  0  0
 28 29  1  0  0  0  0
 29 30  1  0  0  0  0
 30 31  1  0  0  0  0
  3 32  1  0  0  0  0
  3 33  1  0  0  0  0
  4 34  1  0  0  0  0
  7 35  1  0  0  0  0
  9 36  1  0  0  0  0
 13 37  1  0  0  0  0
 14 38  1  0  0  0  0
 15 39  1  0  0  0  0
 17 40  1  0  0  0  0
 19 41  1  0  0  0  0
 20 42  1  0  0  0  0
 25 43  1  0  0  0  0
 25 44  1  0  0  0  0
 25 45  1  0  0  0  0
 29 46  1  0  0  0  0
 29 47  1  0  0  0  0
 30 48  1  0  0  0  0
 30 49  1  0  0  0  0
M  END
> <ID>
59

> <IC50[uM]>
1.126

$$$$
