46
  -OEChem-05192314323D
 Structure written by MMmdl.
 46 49  0     0  0  0  0  0  0999 V2000
   93.0435   49.8102  267.7232 C   0  0  0  0  0  0  0  0  0  0  0  0
   92.5273   47.3329  266.4277 C   0  0  0  0  0  0  0  0  0  0  0  0
   91.5132   48.2719  266.5844 C   0  0  0  0  0  0  0  0  0  0  0  0
   91.7777   49.4816  267.2148 C   0  0  0  0  0  0  0  0  0  0  0  0
   93.8278   47.6124  266.9005 C   0  0  0  0  0  0  0  0  0  0  0  0
   94.1023   48.8575  267.5509 C   0  0  0  0  0  0  0  0  0  0  0  0
   95.3591   49.1150  268.0280 N   0  0  0  0  0  0  0  0  0  0  0  0
   96.3141   48.1685  267.8581 C   0  0  0  0  0  0  0  0  0  0  0  0
   96.0343   46.9585  267.2294 C   0  0  0  0  0  0  0  0  0  0  0  0
   94.8031   46.6694  266.7522 N   0  0  0  0  0  0  0  0  0  0  0  0
   93.2132   51.0616  268.5051 C   0  0  0  0  0  0  0  0  0  0  0  0
   92.2931   51.3561  269.5168 C   0  0  0  0  0  0  0  0  0  0  0  0
   92.4526   52.4703  270.3218 C   0  0  0  0  0  0  0  0  0  0  0  0
   94.2814   51.9348  268.2910 C   0  0  0  0  0  0  0  0  0  0  0  0
   90.1979   47.9914  266.1949 N   0  0  0  0  0  0  0  0  0  0  0  0
   89.6525   47.2396  265.1468 C   0  0  0  0  0  0  0  0  0  0  0  0
   90.3884   46.9960  263.9809 C   0  0  0  0  0  0  0  0  0  0  0  0
   89.8924   46.3415  262.9026 N   0  0  0  0  0  0  0  0  0  0  0  0
   88.6191   45.8808  262.9839 C   0  0  0  0  0  0  0  0  0  0  0  0
   87.8123   46.0650  264.1082 C   0  0  0  0  0  0  0  0  0  0  0  0
   88.3278   46.7653  265.2033 C   0  0  0  0  0  0  0  0  0  0  0  0
   87.2988   46.9262  266.6745 S   0  0  0  0  0  0  0  0  0  0  0  0
   87.6993   48.1509  267.3900 O   0  0  0  0  0  0  0  0  0  0  0  0
   85.9037   46.7478  266.2781 O   0  0  0  0  0  0  0  0  0  0  0  0
   87.8417   45.4403  267.6817 C   0  0  0  0  0  0  0  0  0  0  0  0
   94.4415   53.0681  269.0925 C   0  0  0  0  0  0  0  0  0  0  0  0
   93.5190   53.3406  270.1122 C   0  0  0  0  0  0  0  0  0  0  0  0
   93.6396   54.5887  270.9796 C   0  0  0  0  0  0  0  0  0  0  0  0
   94.4603   55.4970  270.4478 F   0  0  0  0  0  0  0  0  0  0  0  0
   92.4459   55.1254  271.1248 F   0  0  0  0  0  0  0  0  0  0  0  0
   94.0622   54.3038  272.1875 F   0  0  0  0  0  0  0  0  0  0  0  0
   92.3197   46.3897  265.9442 H   0  0  0  0  0  0  0  0  0  0  0  0
   90.9762   50.1982  267.3177 H   0  0  0  0  0  0  0  0  0  0  0  0
   97.3145   48.3573  268.2185 H   0  0  0  0  0  0  0  0  0  0  0  0
   96.8237   46.2297  267.1197 H   0  0  0  0  0  0  0  0  0  0  0  0
   91.4460   50.7044  269.6719 H   0  0  0  0  0  0  0  0  0  0  0  0
   91.7471   52.6656  271.1158 H   0  0  0  0  0  0  0  0  0  0  0  0
   94.9889   51.7329  267.5003 H   0  0  0  0  0  0  0  0  0  0  0  0
   89.5087   48.4131  266.7841 H   0  0  0  0  0  0  0  0  0  0  0  0
   91.4081   47.3493  263.9384 H   0  0  0  0  0  0  0  0  0  0  0  0
   88.2103   45.3464  262.1391 H   0  0  0  0  0  0  0  0  0  0  0  0
   86.8062   45.6730  264.1318 H   0  0  0  0  0  0  0  0  0  0  0  0
   87.2815   45.4136  268.6280 H   0  0  0  0  0  0  0  0  0  0  0  0
   87.6441   44.5198  267.1128 H   0  0  0  0  0  0  0  0  0  0  0  0
   88.9182   45.5156  267.8950 H   0  0  0  0  0  0  0  0  0  0  0  0
   95.2756   53.7338  268.9265 H   0  0  0  0  0  0  0  0  0  0  0  0
  1  4  2  0  0  0  0
  1  6  1  0  0  0  0
  1 11  1  0  0  0  0
  2  3  2  0  0  0  0
  2  5  1  0  0  0  0
  3  4  1  0  0  0  0
  3 15  1  0  0  0  0
  5  6  2  0  0  0  0
  5 10  1  0  0  0  0
  6  7  1  0  0  0  0
  7  8  2  0  0  0  0
  8  9  1  0  0  0  0
  9 10  2  0  0  0  0
 11 12  2  0  0  0  0
 11 14  1  0  0  0  0
 12 13  1  0  0  0  0
 13 27  2  0  0  0  0
 14 26  2  0  0  0  0
 15 16  1  0  0  0  0
 16 17  2  0  0  0  0
 16 21  1  0  0  0  0
 17 18  1  0  0  0  0
 18 19  2  0  0  0  0
 19 20  1  0  0  0  0
 20 21  2  0  0  0  0
 21 22  1  0  0  0  0
 22 23  2  0  0  0  0
 22 24  2  0  0  0  0
 22 25  1  0  0  0  0
 26 27  1  0  0  0  0
 27 28  1  0  0  0  0
 28 29  1  0  0  0  0
 28 30  1  0  0  0  0
 28 31  1  0  0  0  0
  2 32  1  0  0  0  0
  4 33  1  0  0  0  0
  8 34  1  0  0  0  0
  9 35  1  0  0  0  0
 12 36  1  0  0  0  0
 13 37  1  0  0  0  0
 14 38  1  0  0  0  0
 15 39  1  0  0  0  0
 17 40  1  0  0  0  0
 19 41  1  0  0  0  0
 20 42  1  0  0  0  0
 25 43  1  0  0  0  0
 25 44  1  0  0  0  0
 25 45  1  0  0  0  0
 26 46  1  0  0  0  0
M  END
> <ID>
46

> <IC50[uM]>
1.734

$$$$
46
  -OEChem-05192314323D
 Structure written by MMmdl.
 46 49  0     0  0  0  0  0  0999 V2000
   93.0435   49.8102  267.7232 C   0  0  0  0  0  0  0  0  0  0  0  0
   92.5273   47.3329  266.4277 C   0  0  0  0  0  0  0  0  0  0  0  0
   91.5132   48.2719  266.5844 C   0  0  0  0  0  0  0  0  0  0  0  0
   91.7777   49.4816  267.2148 C   0  0  0  0  0  0  0  0  0  0  0  0
   93.8278   47.6124  266.9005 C   0  0  0  0  0  0  0  0  0  0  0  0
   94.1023   48.8575  267.5509 C   0  0  0  0  0  0  0  0  0  0  0  0
   95.3591   49.1150  268.0280 N   0  0  0  0  0  0  0  0  0  0  0  0
   96.3141   48.1685  267.8581 C   0  0  0  0  0  0  0  0  0  0  0  0
   96.0343   46.9585  267.2294 C   0  0  0  0  0  0  0  0  0  0  0  0
   94.8031   46.6694  266.7522 N   0  0  0  0  0  0  0  0  0  0  0  0
   93.2132   51.0616  268.5051 C   0  0  0  0  0  0  0  0  0  0  0  0
   92.2931   51.3561  269.5168 C   0  0  0  0  0  0  0  0  0  0  0  0
   92.4526   52.4703  270.3218 C   0  0  0  0  0  0  0  0  0  0  0  0
   94.2814   51.9348  268.2910 C   0  0  0  0  0  0  0  0  0  0  0  0
   90.1979   47.9914  266.1949 N   0  0  0  0  0  0  0  0  0  0  0  0
   89.6525   47.2396  265.1468 C   0  0  0  0  0  0  0  0  0  0  0  0
   90.3884   46.9960  263.9809 C   0  0  0  0  0  0  0  0  0  0  0  0
   89.8924   46.3415  262.9026 N   0  0  0  0  0  0  0  0  0  0  0  0
   88.6191   45.8808  262.9839 C   0  0  0  0  0  0  0  0  0  0  0  0
   87.8123   46.0650  264.1082 C   0  0  0  0  0  0  0  0  0  0  0  0
   88.3278   46.7653  265.2033 C   0  0  0  0  0  0  0  0  0  0  0  0
   87.2988   46.9262  266.6745 S   0  0  0  0  0  0  0  0  0  0  0  0
   87.6993   48.1509  267.3900 O   0  0  0  0  0  0  0  0  0  0  0  0
   85.9037   46.7478  266.2781 O   0  0  0  0  0  0  0  0  0  0  0  0
   87.8417   45.4403  267.6817 C   0  0  0  0  0  0  0  0  0  0  0  0
   94.4415   53.0681  269.0925 C   0  0  0  0  0  0  0  0  0  0  0  0
   93.5190   53.3406  270.1122 C   0  0  0  0  0  0  0  0  0  0  0  0
   93.6396   54.5887  270.9796 C   0  0  0  0  0  0  0  0  0  0  0  0
   94.4603   55.4970  270.4478 F   0  0  0  0  0  0  0  0  0  0  0  0
   92.4459   55.1254  271.1248 F   0  0  0  0  0  0  0  0  0  0  0  0
   94.0622   54.3038  272.1875 F   0  0  0  0  0  0  0  0  0  0  0  0
   92.3197   46.3897  265.9442 H   0  0  0  0  0  0  0  0  0  0  0  0
   90.9762   50.1982  267.3177 H   0  0  0  0  0  0  0  0  0  0  0  0
   97.3145   48.3573  268.2185 H   0  0  0  0  0  0  0  0  0  0  0  0
   96.8237   46.2297  267.1197 H   0  0  0  0  0  0  0  0  0  0  0  0
   94.6135   45.7948  266.3059 H   0  0  0  0  0  0  0  0  0  0  0  0
   91.4460   50.7044  269.6719 H   0  0  0  0  0  0  0  0  0  0  0  0
   91.7471   52.6656  271.1158 H   0  0  0  0  0  0  0  0  0  0  0  0
   94.9889   51.7329  267.5003 H   0  0  0  0  0  0  0  0  0  0  0  0
   91.4081   47.3493  263.9384 H   0  0  0  0  0  0  0  0  0  0  0  0
   88.2103   45.3464  262.1391 H   0  0  0  0  0  0  0  0  0  0  0  0
   86.8062   45.6730  264.1318 H   0  0  0  0  0  0  0  0  0  0  0  0
   87.2815   45.4136  268.6280 H   0  0  0  0  0  0  0  0  0  0  0  0
   87.6441   44.5198  267.1128 H   0  0  0  0  0  0  0  0  0  0  0  0
   88.9182   45.5156  267.8950 H   0  0  0  0  0  0  0  0  0  0  0  0
   95.2756   53.7338  268.9265 H   0  0  0  0  0  0  0  0  0  0  0  0
  1  4  2  0  0  0  0
  1  6  1  0  0  0  0
  1 11  1  0  0  0  0
  2  3  1  0  0  0  0
  2  5  2  0  0  0  0
  3  4  1  0  0  0  0
  3 15  2  3  0  0  0
  5  6  1  0  0  0  0
  5 10  1  0  0  0  0
  6  7  2  0  0  0  0
  7  8  1  0  0  0  0
  8  9  2  0  0  0  0
  9 10  1  0  0  0  0
 11 12  2  0  0  0  0
 11 14  1  0  0  0  0
 12 13  1  0  0  0  0
 13 27  2  0  0  0  0
 14 26  2  0  0  0  0
 15 16  1  0  0  0  0
 16 17  2  0  0  0  0
 16 21  1  0  0  0  0
 17 18  1  0  0  0  0
 18 19  2  0  0  0  0
 19 20  1  0  0  0  0
 20 21  2  0  0  0  0
 21 22  1  0  0  0  0
 22 23  2  0  0  0  0
 22 24  2  0  0  0  0
 22 25  1  0  0  0  0
 26 27  1  0  0  0  0
 27 28  1  0  0  0  0
 28 29  1  0  0  0  0
 28 30  1  0  0  0  0
 28 31  1  0  0  0  0
  2 32  1  0  0  0  0
  4 33  1  0  0  0  0
  8 34  1  0  0  0  0
  9 35  1  0  0  0  0
 10 36  1  0  0  0  0
 12 37  1  0  0  0  0
 13 38  1  0  0  0  0
 14 39  1  0  0  0  0
 17 40  1  0  0  0  0
 19 41  1  0  0  0  0
 20 42  1  0  0  0  0
 25 43  1  0  0  0  0
 25 44  1  0  0  0  0
 25 45  1  0  0  0  0
 26 46  1  0  0  0  0
M  END
> <ID>
46

> <IC50[uM]>
1.734

$$$$
46
  -OEChem-05192314323D
 Structure written by MMmdl.
 46 49  0     0  0  0  0  0  0999 V2000
   93.0435   49.8102  267.7232 C   0  0  0  0  0  0  0  0  0  0  0  0
   92.5273   47.3329  266.4277 C   0  0  0  0  0  0  0  0  0  0  0  0
   91.5132   48.2719  266.5844 C   0  0  0  0  0  0  0  0  0  0  0  0
   91.7777   49.4816  267.2148 C   0  0  0  0  0  0  0  0  0  0  0  0
   93.8278   47.6124  266.9005 C   0  0  0  0  0  0  0  0  0  0  0  0
   94.1023   48.8575  267.5509 C   0  0  0  0  0  0  0  0  0  0  0  0
   95.3591   49.1150  268.0280 N   0  0  0  0  0  0  0  0  0  0  0  0
   96.3141   48.1685  267.8581 C   0  0  0  0  0  0  0  0  0  0  0  0
   96.0343   46.9585  267.2294 C   0  0  0  0  0  0  0  0  0  0  0  0
   94.8031   46.6694  266.7522 N   0  0  0  0  0  0  0  0  0  0  0  0
   93.2132   51.0616  268.5051 C   0  0  0  0  0  0  0  0  0  0  0  0
   92.2931   51.3561  269.5168 C   0  0  0  0  0  0  0  0  0  0  0  0
   92.4526   52.4703  270.3218 C   0  0  0  0  0  0  0  0  0  0  0  0
   94.2814   51.9348  268.2910 C   0  0  0  0  0  0  0  0  0  0  0  0
   90.1979   47.9914  266.1949 N   0  0  0  0  0  0  0  0  0  0  0  0
   89.6525   47.2396  265.1468 C   0  0  0  0  0  0  0  0  0  0  0  0
   90.3884   46.9960  263.9809 C   0  0  0  0  0  0  0  0  0  0  0  0
   89.8924   46.3415  262.9026 N   0  0  0  0  0  0  0  0  0  0  0  0
   88.6191   45.8808  262.9839 C   0  0  0  0  0  0  0  0  0  0  0  0
   87.8123   46.0650  264.1082 C   0  0  0  0  0  0  0  0  0  0  0  0
   88.3278   46.7653  265.2033 C   0  0  0  0  0  0  0  0  0  0  0  0
   87.2988   46.9262  266.6745 S   0  0  0  0  0  0  0  0  0  0  0  0
   87.6993   48.1509  267.3900 O   0  0  0  0  0  0  0  0  0  0  0  0
   85.9037   46.7478  266.2781 O   0  0  0  0  0  0  0  0  0  0  0  0
   87.8417   45.4403  267.6817 C   0  0  0  0  0  0  0  0  0  0  0  0
   94.4415   53.0681  269.0925 C   0  0  0  0  0  0  0  0  0  0  0  0
   93.5190   53.3406  270.1122 C   0  0  0  0  0  0  0  0  0  0  0  0
   93.6396   54.5887  270.9796 C   0  0  0  0  0  0  0  0  0  0  0  0
   94.4603   55.4970  270.4478 F   0  0  0  0  0  0  0  0  0  0  0  0
   92.4459   55.1254  271.1248 F   0  0  0  0  0  0  0  0  0  0  0  0
   94.0622   54.3038  272.1875 F   0  0  0  0  0  0  0  0  0  0  0  0
   92.1939   46.4174  266.9382 H   0  0  0  0  0  0  0  0  0  0  0  0
   92.6166   47.1392  265.3486 H   0  0  0  0  0  0  0  0  0  0  0  0
   90.9762   50.1982  267.3177 H   0  0  0  0  0  0  0  0  0  0  0  0
   97.3145   48.3573  268.2185 H   0  0  0  0  0  0  0  0  0  0  0  0
   96.8237   46.2297  267.1197 H   0  0  0  0  0  0  0  0  0  0  0  0
   91.4460   50.7044  269.6719 H   0  0  0  0  0  0  0  0  0  0  0  0
   91.7471   52.6656  271.1158 H   0  0  0  0  0  0  0  0  0  0  0  0
   94.9889   51.7329  267.5003 H   0  0  0  0  0  0  0  0  0  0  0  0
   91.4081   47.3493  263.9384 H   0  0  0  0  0  0  0  0  0  0  0  0
   88.2103   45.3464  262.1391 H   0  0  0  0  0  0  0  0  0  0  0  0
   86.8062   45.6730  264.1318 H   0  0  0  0  0  0  0  0  0  0  0  0
   87.2815   45.4136  268.6280 H   0  0  0  0  0  0  0  0  0  0  0  0
   87.6441   44.5198  267.1128 H   0  0  0  0  0  0  0  0  0  0  0  0
   88.9182   45.5156  267.8950 H   0  0  0  0  0  0  0  0  0  0  0  0
   95.2756   53.7338  268.9265 H   0  0  0  0  0  0  0  0  0  0  0  0
  1  4  2  0  0  0  0
  1  6  1  0  0  0  0
  1 11  1  0  0  0  0
  2  3  1  0  0  0  0
  2  5  1  0  0  0  0
  3  4  1  0  0  0  0
  3 15  2  3  0  0  0
  5  6  2  0  0  0  0
  5 10  1  0  0  0  0
  6  7  1  0  0  0  0
  7  8  2  0  0  0  0
  8  9  1  0  0  0  0
  9 10  2  0  0  0  0
 11 12  2  0  0  0  0
 11 14  1  0  0  0  0
 12 13  1  0  0  0  0
 13 27  2  0  0  0  0
 14 26  2  0  0  0  0
 15 16  1  0  0  0  0
 16 17  2  0  0  0  0
 16 21  1  0  0  0  0
 17 18  1  0  0  0  0
 18 19  2  0  0  0  0
 19 20  1  0  0  0  0
 20 21  2  0  0  0  0
 21 22  1  0  0  0  0
 22 23  2  0  0  0  0
 22 24  2  0  0  0  0
 22 25  1  0  0  0  0
 26 27  1  0  0  0  0
 27 28  1  0  0  0  0
 28 29  1  0  0  0  0
 28 30  1  0  0  0  0
 28 31  1  0  0  0  0
  2 32  1  0  0  0  0
  2 33  1  0  0  0  0
  4 34  1  0  0  0  0
  8 35  1  0  0  0  0
  9 36  1  0  0  0  0
 12 37  1  0  0  0  0
 13 38  1  0  0  0  0
 14 39  1  0  0  0  0
 17 40  1  0  0  0  0
 19 41  1  0  0  0  0
 20 42  1  0  0  0  0
 25 43  1  0  0  0  0
 25 44  1  0  0  0  0
 25 45  1  0  0  0  0
 26 46  1  0  0  0  0
M  END
> <ID>
46

> <IC50[uM]>
1.734

$$$$
46
  -OEChem-05192314323D
 Structure written by MMmdl.
 46 49  0     0  0  0  0  0  0999 V2000
   93.0435   49.8102  267.7232 C   0  0  0  0  0  0  0  0  0  0  0  0
   92.5273   47.3329  266.4277 C   0  0  0  0  0  0  0  0  0  0  0  0
   91.5132   48.2719  266.5844 C   0  0  0  0  0  0  0  0  0  0  0  0
   91.7777   49.4816  267.2148 C   0  0  0  0  0  0  0  0  0  0  0  0
   93.8278   47.6124  266.9005 C   0  0  0  0  0  0  0  0  0  0  0  0
   94.1023   48.8575  267.5509 C   0  0  0  0  0  0  0  0  0  0  0  0
   95.3591   49.1150  268.0280 N   0  0  0  0  0  0  0  0  0  0  0  0
   96.3141   48.1685  267.8581 C   0  0  0  0  0  0  0  0  0  0  0  0
   96.0343   46.9585  267.2294 C   0  0  0  0  0  0  0  0  0  0  0  0
   94.8031   46.6694  266.7522 N   0  0  0  0  0  0  0  0  0  0  0  0
   93.2132   51.0616  268.5051 C   0  0  0  0  0  0  0  0  0  0  0  0
   92.2931   51.3561  269.5168 C   0  0  0  0  0  0  0  0  0  0  0  0
   92.4526   52.4703  270.3218 C   0  0  0  0  0  0  0  0  0  0  0  0
   94.2814   51.9348  268.2910 C   0  0  0  0  0  0  0  0  0  0  0  0
   90.1979   47.9914  266.1949 N   0  0  0  0  0  0  0  0  0  0  0  0
   89.6525   47.2396  265.1468 C   0  0  0  0  0  0  0  0  0  0  0  0
   90.3884   46.9960  263.9809 C   0  0  0  0  0  0  0  0  0  0  0  0
   89.8924   46.3415  262.9026 N   0  0  0  0  0  0  0  0  0  0  0  0
   88.6191   45.8808  262.9839 C   0  0  0  0  0  0  0  0  0  0  0  0
   87.8123   46.0650  264.1082 C   0  0  0  0  0  0  0  0  0  0  0  0
   88.3278   46.7653  265.2033 C   0  0  0  0  0  0  0  0  0  0  0  0
   87.2988   46.9262  266.6745 S   0  0  0  0  0  0  0  0  0  0  0  0
   87.6993   48.1509  267.3900 O   0  0  0  0  0  0  0  0  0  0  0  0
   85.9037   46.7478  266.2781 O   0  0  0  0  0  0  0  0  0  0  0  0
   87.8417   45.4403  267.6817 C   0  0  0  0  0  0  0  0  0  0  0  0
   94.4415   53.0681  269.0925 C   0  0  0  0  0  0  0  0  0  0  0  0
   93.5190   53.3406  270.1122 C   0  0  0  0  0  0  0  0  0  0  0  0
   93.6396   54.5887  270.9796 C   0  0  0  0  0  0  0  0  0  0  0  0
   94.4603   55.4970  270.4478 F   0  0  0  0  0  0  0  0  0  0  0  0
   92.4459   55.1254  271.1248 F   0  0  0  0  0  0  0  0  0  0  0  0
   94.0622   54.3038  272.1875 F   0  0  0  0  0  0  0  0  0  0  0  0
   92.3197   46.3897  265.9442 H   0  0  0  0  0  0  0  0  0  0  0  0
   91.0832   49.5398  268.0658 H   0  0  0  0  0  0  0  0  0  0  0  0
   91.5296   50.2661  266.4848 H   0  0  0  0  0  0  0  0  0  0  0  0
   97.3145   48.3573  268.2185 H   0  0  0  0  0  0  0  0  0  0  0  0
   96.8237   46.2297  267.1197 H   0  0  0  0  0  0  0  0  0  0  0  0
   91.4460   50.7044  269.6719 H   0  0  0  0  0  0  0  0  0  0  0  0
   91.7471   52.6656  271.1158 H   0  0  0  0  0  0  0  0  0  0  0  0
   94.9889   51.7329  267.5003 H   0  0  0  0  0  0  0  0  0  0  0  0
   91.4081   47.3493  263.9384 H   0  0  0  0  0  0  0  0  0  0  0  0
   88.2103   45.3464  262.1391 H   0  0  0  0  0  0  0  0  0  0  0  0
   86.8062   45.6730  264.1318 H   0  0  0  0  0  0  0  0  0  0  0  0
   87.2815   45.4136  268.6280 H   0  0  0  0  0  0  0  0  0  0  0  0
   87.6441   44.5198  267.1128 H   0  0  0  0  0  0  0  0  0  0  0  0
   88.9182   45.5156  267.8950 H   0  0  0  0  0  0  0  0  0  0  0  0
   95.2756   53.7338  268.9265 H   0  0  0  0  0  0  0  0  0  0  0  0
  1  4  1  0  0  0  0
  1  6  2  0  0  0  0
  1 11  1  0  0  0  0
  2  3  1  0  0  0  0
  2  5  2  0  0  0  0
  3  4  1  0  0  0  0
  3 15  2  3  0  0  0
  5  6  1  0  0  0  0
  5 10  1  0  0  0  0
  6  7  1  0  0  0  0
  7  8  2  0  0  0  0
  8  9  1  0  0  0  0
  9 10  2  0  0  0  0
 11 12  2  0  0  0  0
 11 14  1  0  0  0  0
 12 13  1  0  0  0  0
 13 27  2  0  0  0  0
 14 26  2  0  0  0  0
 15 16  1  0  0  0  0
 16 17  2  0  0  0  0
 16 21  1  0  0  0  0
 17 18  1  0  0  0  0
 18 19  2  0  0  0  0
 19 20  1  0  0  0  0
 20 21  2  0  0  0  0
 21 22  1  0  0  0  0
 22 23  2  0  0  0  0
 22 24  2  0  0  0  0
 22 25  1  0  0  0  0
 26 27  1  0  0  0  0
 27 28  1  0  0  0  0
 28 29  1  0  0  0  0
 28 30  1  0  0  0  0
 28 31  1  0  0  0  0
  2 32  1  0  0  0  0
  4 33  1  0  0  0  0
  4 34  1  0  0  0  0
  8 35  1  0  0  0  0
  9 36  1  0  0  0  0
 12 37  1  0  0  0  0
 13 38  1  0  0  0  0
 14 39  1  0  0  0  0
 17 40  1  0  0  0  0
 19 41  1  0  0  0  0
 20 42  1  0  0  0  0
 25 43  1  0  0  0  0
 25 44  1  0  0  0  0
 25 45  1  0  0  0  0
 26 46  1  0  0  0  0
M  END
> <ID>
46

> <IC50[uM]>
1.734

$$$$
46
  -OEChem-05192314323D
 Structure written by MMmdl.
 46 49  0     1  0  0  0  0  0999 V2000
   93.0435   49.8102  267.7232 C   0  0  0  0  0  0  0  0  0  0  0  0
   92.5273   47.3329  266.4277 C   0  0  0  0  0  0  0  0  0  0  0  0
   91.5132   48.2719  266.5844 C   0  0  0  0  0  0  0  0  0  0  0  0
   91.7777   49.4816  267.2148 C   0  0  0  0  0  0  0  0  0  0  0  0
   93.8278   47.6124  266.9005 C   0  0  0  0  0  0  0  0  0  0  0  0
   94.1023   48.8575  267.5509 C   0  0  0  0  0  0  0  0  0  0  0  0
   95.3591   49.1150  268.0280 N   0  0  0  0  0  0  0  0  0  0  0  0
   96.3141   48.1685  267.8581 C   0  0  0  0  0  0  0  0  0  0  0  0
   96.0343   46.9585  267.2294 C   0  0  0  0  0  0  0  0  0  0  0  0
   94.8031   46.6694  266.7522 N   0  0  0  0  0  0  0  0  0  0  0  0
   93.2132   51.0616  268.5051 C   0  0  0  0  0  0  0  0  0  0  0  0
   92.2931   51.3561  269.5168 C   0  0  0  0  0  0  0  0  0  0  0  0
   92.4526   52.4703  270.3218 C   0  0  0  0  0  0  0  0  0  0  0  0
   94.2814   51.9348  268.2910 C   0  0  0  0  0  0  0  0  0  0  0  0
   90.1979   47.9914  266.1949 N   0  0  0  0  0  0  0  0  0  0  0  0
   89.6525   47.2396  265.1468 C   0  0  0  0  0  0  0  0  0  0  0  0
   90.3884   46.9960  263.9809 C   0  0  0  0  0  0  0  0  0  0  0  0
   89.8924   46.3415  262.9026 N   0  0  0  0  0  0  0  0  0  0  0  0
   88.6191   45.8808  262.9839 C   0  0  0  0  0  0  0  0  0  0  0  0
   87.8123   46.0650  264.1082 C   0  0  0  0  0  0  0  0  0  0  0  0
   88.3278   46.7653  265.2033 C   0  0  3  0  0  0  0  0  0  0  0  0
   87.2988   46.9262  266.6745 S   0  0  0  0  0  0  0  0  0  0  0  0
   87.6993   48.1509  267.3900 O   0  0  0  0  0  0  0  0  0  0  0  0
   85.9037   46.7478  266.2781 O   0  0  0  0  0  0  0  0  0  0  0  0
   87.8417   45.4403  267.6817 C   0  0  0  0  0  0  0  0  0  0  0  0
   94.4415   53.0681  269.0925 C   0  0  0  0  0  0  0  0  0  0  0  0
   93.5190   53.3406  270.1122 C   0  0  0  0  0  0  0  0  0  0  0  0
   93.6396   54.5887  270.9796 C   0  0  0  0  0  0  0  0  0  0  0  0
   94.4603   55.4970  270.4478 F   0  0  0  0  0  0  0  0  0  0  0  0
   92.4459   55.1254  271.1248 F   0  0  0  0  0  0  0  0  0  0  0  0
   94.0622   54.3038  272.1875 F   0  0  0  0  0  0  0  0  0  0  0  0
   92.3197   46.3897  265.9442 H   0  0  0  0  0  0  0  0  0  0  0  0
   90.9762   50.1982  267.3177 H   0  0  0  0  0  0  0  0  0  0  0  0
   97.3145   48.3573  268.2185 H   0  0  0  0  0  0  0  0  0  0  0  0
   96.8237   46.2297  267.1197 H   0  0  0  0  0  0  0  0  0  0  0  0
   91.4460   50.7044  269.6719 H   0  0  0  0  0  0  0  0  0  0  0  0
   91.7471   52.6656  271.1158 H   0  0  0  0  0  0  0  0  0  0  0  0
   94.9889   51.7329  267.5003 H   0  0  0  0  0  0  0  0  0  0  0  0
   91.4081   47.3493  263.9384 H   0  0  0  0  0  0  0  0  0  0  0  0
   88.2103   45.3464  262.1391 H   0  0  0  0  0  0  0  0  0  0  0  0
   86.8062   45.6730  264.1318 H   0  0  0  0  0  0  0  0  0  0  0  0
   87.9439   47.7170  264.8071 H   0  0  0  0  0  0  0  0  0  0  0  0
   87.2815   45.4136  268.6280 H   0  0  0  0  0  0  0  0  0  0  0  0
   87.6441   44.5198  267.1128 H   0  0  0  0  0  0  0  0  0  0  0  0
   88.9182   45.5156  267.8950 H   0  0  0  0  0  0  0  0  0  0  0  0
   95.2756   53.7338  268.9265 H   0  0  0  0  0  0  0  0  0  0  0  0
  1  4  2  0  0  0  0
  1  6  1  0  0  0  0
  1 11  1  0  0  0  0
  2  3  2  0  0  0  0
  2  5  1  0  0  0  0
  3  4  1  0  0  0  0
  3 15  1  0  0  0  0
  5  6  2  0  0  0  0
  5 10  1  0  0  0  0
  6  7  1  0  0  0  0
  7  8  2  0  0  0  0
  8  9  1  0  0  0  0
  9 10  2  0  0  0  0
 11 12  2  0  0  0  0
 11 14  1  0  0  0  0
 12 13  1  0  0  0  0
 13 27  2  0  0  0  0
 14 26  2  0  0  0  0
 15 16  2  0  0  0  0
 16 17  1  0  0  0  0
 16 21  1  0  0  0  0
 17 18  2  0  0  0  0
 18 19  1  0  0  0  0
 19 20  2  0  0  0  0
 20 21  1  0  0  0  0
 21 22  1  0  0  0  0
 22 23  2  0  0  0  0
 22 24  2  0  0  0  0
 22 25  1  0  0  0  0
 26 27  1  0  0  0  0
 27 28  1  0  0  0  0
 28 29  1  0  0  0  0
 28 30  1  0  0  0  0
 28 31  1  0  0  0  0
  2 32  1  0  0  0  0
  4 33  1  0  0  0  0
  8 34  1  0  0  0  0
  9 35  1  0  0  0  0
 12 36  1  0  0  0  0
 13 37  1  0  0  0  0
 14 38  1  0  0  0  0
 17 39  1  0  0  0  0
 19 40  1  0  0  0  0
 20 41  1  0  0  0  0
 21 42  1  0  0  0  0
 25 43  1  0  0  0  0
 25 44  1  0  0  0  0
 25 45  1  0  0  0  0
 26 46  1  0  0  0  0
M  END
> <ID>
46

> <IC50[uM]>
1.734

$$$$
46
  -OEChem-05192314323D
 Structure written by MMmdl.
 46 49  0     0  0  0  0  0  0999 V2000
   93.0435   49.8102  267.7232 C   0  0  0  0  0  0  0  0  0  0  0  0
   92.5273   47.3329  266.4277 C   0  0  0  0  0  0  0  0  0  0  0  0
   91.5132   48.2719  266.5844 C   0  0  0  0  0  0  0  0  0  0  0  0
   91.7777   49.4816  267.2148 C   0  0  0  0  0  0  0  0  0  0  0  0
   93.8278   47.6124  266.9005 C   0  0  0  0  0  0  0  0  0  0  0  0
   94.1023   48.8575  267.5509 C   0  0  0  0  0  0  0  0  0  0  0  0
   95.3591   49.1150  268.0280 N   0  0  0  0  0  0  0  0  0  0  0  0
   96.3141   48.1685  267.8581 C   0  0  0  0  0  0  0  0  0  0  0  0
   96.0343   46.9585  267.2294 C   0  0  0  0  0  0  0  0  0  0  0  0
   94.8031   46.6694  266.7522 N   0  0  0  0  0  0  0  0  0  0  0  0
   93.2132   51.0616  268.5051 C   0  0  0  0  0  0  0  0  0  0  0  0
   92.2931   51.3561  269.5168 C   0  0  0  0  0  0  0  0  0  0  0  0
   92.4526   52.4703  270.3218 C   0  0  0  0  0  0  0  0  0  0  0  0
   94.2814   51.9348  268.2910 C   0  0  0  0  0  0  0  0  0  0  0  0
   90.1979   47.9914  266.1949 N   0  0  0  0  0  0  0  0  0  0  0  0
   89.6525   47.2396  265.1468 C   0  0  0  0  0  0  0  0  0  0  0  0
   90.3884   46.9960  263.9809 C   0  0  0  0  0  0  0  0  0  0  0  0
   89.8924   46.3415  262.9026 N   0  0  0  0  0  0  0  0  0  0  0  0
   88.6191   45.8808  262.9839 C   0  0  0  0  0  0  0  0  0  0  0  0
   87.8123   46.0650  264.1082 C   0  0  0  0  0  0  0  0  0  0  0  0
   88.3278   46.7653  265.2033 C   0  0  0  0  0  0  0  0  0  0  0  0
   87.2988   46.9262  266.6745 S   0  0  0  0  0  0  0  0  0  0  0  0
   87.6993   48.1509  267.3900 O   0  0  0  0  0  0  0  0  0  0  0  0
   85.9037   46.7478  266.2781 O   0  0  0  0  0  0  0  0  0  0  0  0
   87.8417   45.4403  267.6817 C   0  0  0  0  0  0  0  0  0  0  0  0
   94.4415   53.0681  269.0925 C   0  0  0  0  0  0  0  0  0  0  0  0
   93.5190   53.3406  270.1122 C   0  0  0  0  0  0  0  0  0  0  0  0
   93.6396   54.5887  270.9796 C   0  0  0  0  0  0  0  0  0  0  0  0
   94.4603   55.4970  270.4478 F   0  0  0  0  0  0  0  0  0  0  0  0
   92.4459   55.1254  271.1248 F   0  0  0  0  0  0  0  0  0  0  0  0
   94.0622   54.3038  272.1875 F   0  0  0  0  0  0  0  0  0  0  0  0
   92.3197   46.3897  265.9442 H   0  0  0  0  0  0  0  0  0  0  0  0
   90.9762   50.1982  267.3177 H   0  0  0  0  0  0  0  0  0  0  0  0
   97.3145   48.3573  268.2185 H   0  0  0  0  0  0  0  0  0  0  0  0
   96.8237   46.2297  267.1197 H   0  0  0  0  0  0  0  0  0  0  0  0
   91.4460   50.7044  269.6719 H   0  0  0  0  0  0  0  0  0  0  0  0
   91.7471   52.6656  271.1158 H   0  0  0  0  0  0  0  0  0  0  0  0
   94.9889   51.7329  267.5003 H   0  0  0  0  0  0  0  0  0  0  0  0
   91.4081   47.3493  263.9384 H   0  0  0  0  0  0  0  0  0  0  0  0
   88.0770   46.3398  262.1440 H   0  0  0  0  0  0  0  0  0  0  0  0
   88.6804   44.7933  262.8303 H   0  0  0  0  0  0  0  0  0  0  0  0
   86.8062   45.6730  264.1318 H   0  0  0  0  0  0  0  0  0  0  0  0
   87.2815   45.4136  268.6280 H   0  0  0  0  0  0  0  0  0  0  0  0
   87.6441   44.5198  267.1128 H   0  0  0  0  0  0  0  0  0  0  0  0
   88.9182   45.5156  267.8950 H   0  0  0  0  0  0  0  0  0  0  0  0
   95.2756   53.7338  268.9265 H   0  0  0  0  0  0  0  0  0  0  0  0
  1  4  2  0  0  0  0
  1  6  1  0  0  0  0
  1 11  1  0  0  0  0
  2  3  2  0  0  0  0
  2  5  1  0  0  0  0
  3  4  1  0  0  0  0
  3 15  1  0  0  0  0
  5  6  2  0  0  0  0
  5 10  1  0  0  0  0
  6  7  1  0  0  0  0
  7  8  2  0  0  0  0
  8  9  1  0  0  0  0
  9 10  2  0  0  0  0
 11 12  2  0  0  0  0
 11 14  1  0  0  0  0
 12 13  1  0  0  0  0
 13 27  2  0  0  0  0
 14 26  2  0  0  0  0
 15 16  2  0  0  0  0
 16 17  1  0  0  0  0
 16 21  1  0  0  0  0
 17 18  2  0  0  0  0
 18 19  1  0  0  0  0
 19 20  1  0  0  0  0
 20 21  2  0  0  0  0
 21 22  1  0  0  0  0
 22 23  2  0  0  0  0
 22 24  2  0  0  0  0
 22 25  1  0  0  0  0
 26 27  1  0  0  0  0
 27 28  1  0  0  0  0
 28 29  1  0  0  0  0
 28 30  1  0  0  0  0
 28 31  1  0  0  0  0
  2 32  1  0  0  0  0
  4 33  1  0  0  0  0
  8 34  1  0  0  0  0
  9 35  1  0  0  0  0
 12 36  1  0  0  0  0
 13 37  1  0  0  0  0
 14 38  1  0  0  0  0
 17 39  1  0  0  0  0
 19 40  1  0  0  0  0
 19 41  1  0  0  0  0
 20 42  1  0  0  0  0
 25 43  1  0  0  0  0
 25 44  1  0  0  0  0
 25 45  1  0  0  0  0
 26 46  1  0  0  0  0
M  END
> <ID>
46

> <IC50[uM]>
1.734

$$$$
46
  -OEChem-05192314323D
 Structure written by MMmdl.
 46 49  0     0  0  0  0  0  0999 V2000
   93.0435   49.8102  267.7232 C   0  0  0  0  0  0  0  0  0  0  0  0
   92.5273   47.3329  266.4277 C   0  0  0  0  0  0  0  0  0  0  0  0
   91.5132   48.2719  266.5844 C   0  0  0  0  0  0  0  0  0  0  0  0
   91.7777   49.4816  267.2148 C   0  0  0  0  0  0  0  0  0  0  0  0
   93.8278   47.6124  266.9005 C   0  0  0  0  0  0  0  0  0  0  0  0
   94.1023   48.8575  267.5509 C   0  0  0  0  0  0  0  0  0  0  0  0
   95.3591   49.1150  268.0280 N   0  0  0  0  0  0  0  0  0  0  0  0
   96.3141   48.1685  267.8581 C   0  0  0  0  0  0  0  0  0  0  0  0
   96.0343   46.9585  267.2294 C   0  0  0  0  0  0  0  0  0  0  0  0
   94.8031   46.6694  266.7522 N   0  0  0  0  0  0  0  0  0  0  0  0
   93.2132   51.0616  268.5051 C   0  0  0  0  0  0  0  0  0  0  0  0
   92.2931   51.3561  269.5168 C   0  0  0  0  0  0  0  0  0  0  0  0
   92.4526   52.4703  270.3218 C   0  0  0  0  0  0  0  0  0  0  0  0
   94.2814   51.9348  268.2910 C   0  0  0  0  0  0  0  0  0  0  0  0
   90.1979   47.9914  266.1949 N   0  0  0  0  0  0  0  0  0  0  0  0
   89.6525   47.2396  265.1468 C   0  0  0  0  0  0  0  0  0  0  0  0
   90.3884   46.9960  263.9809 C   0  0  0  0  0  0  0  0  0  0  0  0
   89.8924   46.3415  262.9026 N   0  0  0  0  0  0  0  0  0  0  0  0
   88.6191   45.8808  262.9839 C   0  0  0  0  0  0  0  0  0  0  0  0
   87.8123   46.0650  264.1082 C   0  0  0  0  0  0  0  0  0  0  0  0
   88.3278   46.7653  265.2033 C   0  0  0  0  0  0  0  0  0  0  0  0
   87.2988   46.9262  266.6745 S   0  0  0  0  0  0  0  0  0  0  0  0
   87.6993   48.1509  267.3900 O   0  0  0  0  0  0  0  0  0  0  0  0
   85.9037   46.7478  266.2781 O   0  0  0  0  0  0  0  0  0  0  0  0
   87.8417   45.4403  267.6817 C   0  0  0  0  0  0  0  0  0  0  0  0
   94.4415   53.0681  269.0925 C   0  0  0  0  0  0  0  0  0  0  0  0
   93.5190   53.3406  270.1122 C   0  0  0  0  0  0  0  0  0  0  0  0
   93.6396   54.5887  270.9796 C   0  0  0  0  0  0  0  0  0  0  0  0
   94.4603   55.4970  270.4478 F   0  0  0  0  0  0  0  0  0  0  0  0
   92.4459   55.1254  271.1248 F   0  0  0  0  0  0  0  0  0  0  0  0
   94.0622   54.3038  272.1875 F   0  0  0  0  0  0  0  0  0  0  0  0
   92.3197   46.3897  265.9442 H   0  0  0  0  0  0  0  0  0  0  0  0
   90.9762   50.1982  267.3177 H   0  0  0  0  0  0  0  0  0  0  0  0
   97.3145   48.3573  268.2185 H   0  0  0  0  0  0  0  0  0  0  0  0
   96.8237   46.2297  267.1197 H   0  0  0  0  0  0  0  0  0  0  0  0
   91.4460   50.7044  269.6719 H   0  0  0  0  0  0  0  0  0  0  0  0
   91.7471   52.6656  271.1158 H   0  0  0  0  0  0  0  0  0  0  0  0
   94.9889   51.7329  267.5003 H   0  0  0  0  0  0  0  0  0  0  0  0
   90.7035   47.9837  263.6133 H   0  0  0  0  0  0  0  0  0  0  0  0
   91.2725   46.4238  264.2984 H   0  0  0  0  0  0  0  0  0  0  0  0
   88.2103   45.3464  262.1391 H   0  0  0  0  0  0  0  0  0  0  0  0
   86.8062   45.6730  264.1318 H   0  0  0  0  0  0  0  0  0  0  0  0
   87.2815   45.4136  268.6280 H   0  0  0  0  0  0  0  0  0  0  0  0
   87.6441   44.5198  267.1128 H   0  0  0  0  0  0  0  0  0  0  0  0
   88.9182   45.5156  267.8950 H   0  0  0  0  0  0  0  0  0  0  0  0
   95.2756   53.7338  268.9265 H   0  0  0  0  0  0  0  0  0  0  0  0
  1  4  2  0  0  0  0
  1  6  1  0  0  0  0
  1 11  1  0  0  0  0
  2  3  2  0  0  0  0
  2  5  1  0  0  0  0
  3  4  1  0  0  0  0
  3 15  1  0  0  0  0
  5  6  2  0  0  0  0
  5 10  1  0  0  0  0
  6  7  1  0  0  0  0
  7  8  2  0  0  0  0
  8  9  1  0  0  0  0
  9 10  2  0  0  0  0
 11 12  2  0  0  0  0
 11 14  1  0  0  0  0
 12 13  1  0  0  0  0
 13 27  2  0  0  0  0
 14 26  2  0  0  0  0
 15 16  2  0  0  0  0
 16 17  1  0  0  0  0
 16 21  1  0  0  0  0
 17 18  1  0  0  0  0
 18 19  2  0  0  0  0
 19 20  1  0  0  0  0
 20 21  2  0  0  0  0
 21 22  1  0  0  0  0
 22 23  2  0  0  0  0
 22 24  2  0  0  0  0
 22 25  1  0  0  0  0
 26 27  1  0  0  0  0
 27 28  1  0  0  0  0
 28 29  1  0  0  0  0
 28 30  1  0  0  0  0
 28 31  1  0  0  0  0
  2 32  1  0  0  0  0
  4 33  1  0  0  0  0
  8 34  1  0  0  0  0
  9 35  1  0  0  0  0
 12 36  1  0  0  0  0
 13 37  1  0  0  0  0
 14 38  1  0  0  0  0
 17 39  1  0  0  0  0
 17 40  1  0  0  0  0
 19 41  1  0  0  0  0
 20 42  1  0  0  0  0
 25 43  1  0  0  0  0
 25 44  1  0  0  0  0
 25 45  1  0  0  0  0
 26 46  1  0  0  0  0
M  END
> <ID>
46

> <IC50[uM]>
1.734

$$$$
46
  -OEChem-05192314323D
 Structure written by MMmdl.
 46 49  0     1  0  0  0  0  0999 V2000
   93.0435   49.8102  267.7232 C   0  0  0  0  0  0  0  0  0  0  0  0
   92.5273   47.3329  266.4277 C   0  0  0  0  0  0  0  0  0  0  0  0
   91.5132   48.2719  266.5844 C   0  0  0  0  0  0  0  0  0  0  0  0
   91.7777   49.4816  267.2148 C   0  0  0  0  0  0  0  0  0  0  0  0
   93.8278   47.6124  266.9005 C   0  0  0  0  0  0  0  0  0  0  0  0
   94.1023   48.8575  267.5509 C   0  0  3  0  0  0  0  0  0  0  0  0
   95.3591   49.1150  268.0280 N   0  0  0  0  0  0  0  0  0  0  0  0
   96.3141   48.1685  267.8581 C   0  0  0  0  0  0  0  0  0  0  0  0
   96.0343   46.9585  267.2294 C   0  0  0  0  0  0  0  0  0  0  0  0
   94.8031   46.6694  266.7522 N   0  0  0  0  0  0  0  0  0  0  0  0
   93.2132   51.0616  268.5051 C   0  0  0  0  0  0  0  0  0  0  0  0
   92.2931   51.3561  269.5168 C   0  0  0  0  0  0  0  0  0  0  0  0
   92.4526   52.4703  270.3218 C   0  0  0  0  0  0  0  0  0  0  0  0
   94.2814   51.9348  268.2910 C   0  0  0  0  0  0  0  0  0  0  0  0
   90.1979   47.9914  266.1949 N   0  0  0  0  0  0  0  0  0  0  0  0
   89.6525   47.2396  265.1468 C   0  0  0  0  0  0  0  0  0  0  0  0
   90.3884   46.9960  263.9809 C   0  0  0  0  0  0  0  0  0  0  0  0
   89.8924   46.3415  262.9026 N   0  0  0  0  0  0  0  0  0  0  0  0
   88.6191   45.8808  262.9839 C   0  0  0  0  0  0  0  0  0  0  0  0
   87.8123   46.0650  264.1082 C   0  0  0  0  0  0  0  0  0  0  0  0
   88.3278   46.7653  265.2033 C   0  0  0  0  0  0  0  0  0  0  0  0
   87.2988   46.9262  266.6745 S   0  0  0  0  0  0  0  0  0  0  0  0
   87.6993   48.1509  267.3900 O   0  0  0  0  0  0  0  0  0  0  0  0
   85.9037   46.7478  266.2781 O   0  0  0  0  0  0  0  0  0  0  0  0
   87.8417   45.4403  267.6817 C   0  0  0  0  0  0  0  0  0  0  0  0
   94.4415   53.0681  269.0925 C   0  0  0  0  0  0  0  0  0  0  0  0
   93.5190   53.3406  270.1122 C   0  0  0  0  0  0  0  0  0  0  0  0
   93.6396   54.5887  270.9796 C   0  0  0  0  0  0  0  0  0  0  0  0
   94.4603   55.4970  270.4478 F   0  0  0  0  0  0  0  0  0  0  0  0
   92.4459   55.1254  271.1248 F   0  0  0  0  0  0  0  0  0  0  0  0
   94.0622   54.3038  272.1875 F   0  0  0  0  0  0  0  0  0  0  0  0
   92.3197   46.3897  265.9442 H   0  0  0  0  0  0  0  0  0  0  0  0
   90.9762   50.1982  267.3177 H   0  0  0  0  0  0  0  0  0  0  0  0
   94.3662   49.3132  266.5851 H   0  0  0  0  0  0  0  0  0  0  0  0
   97.3145   48.3573  268.2185 H   0  0  0  0  0  0  0  0  0  0  0  0
   96.8237   46.2297  267.1197 H   0  0  0  0  0  0  0  0  0  0  0  0
   91.4460   50.7044  269.6719 H   0  0  0  0  0  0  0  0  0  0  0  0
   91.7471   52.6656  271.1158 H   0  0  0  0  0  0  0  0  0  0  0  0
   94.9889   51.7329  267.5003 H   0  0  0  0  0  0  0  0  0  0  0  0
   91.4081   47.3493  263.9384 H   0  0  0  0  0  0  0  0  0  0  0  0
   88.2103   45.3464  262.1391 H   0  0  0  0  0  0  0  0  0  0  0  0
   86.8062   45.6730  264.1318 H   0  0  0  0  0  0  0  0  0  0  0  0
   87.2815   45.4136  268.6280 H   0  0  0  0  0  0  0  0  0  0  0  0
   87.6441   44.5198  267.1128 H   0  0  0  0  0  0  0  0  0  0  0  0
   88.9182   45.5156  267.8950 H   0  0  0  0  0  0  0  0  0  0  0  0
   95.2756   53.7338  268.9265 H   0  0  0  0  0  0  0  0  0  0  0  0
  1  4  2  0  0  0  0
  1  6  1  0  0  0  0
  1 11  1  0  0  0  0
  2  3  1  0  0  0  0
  2  5  2  0  0  0  0
  3  4  1  0  0  0  0
  3 15  2  3  0  0  0
  5  6  1  0  0  0  0
  5 10  1  0  0  0  0
  6  7  1  0  0  0  0
  7  8  2  0  0  0  0
  8  9  1  0  0  0  0
  9 10  2  0  0  0  0
 11 12  2  0  0  0  0
 11 14  1  0  0  0  0
 12 13  1  0  0  0  0
 13 27  2  0  0  0  0
 14 26  2  0  0  0  0
 15 16  1  0  0  0  0
 16 17  2  0  0  0  0
 16 21  1  0  0  0  0
 17 18  1  0  0  0  0
 18 19  2  0  0  0  0
 19 20  1  0  0  0  0
 20 21  2  0  0  0  0
 21 22  1  0  0  0  0
 22 23  2  0  0  0  0
 22 24  2  0  0  0  0
 22 25  1  0  0  0  0
 26 27  1  0  0  0  0
 27 28  1  0  0  0  0
 28 29  1  0  0  0  0
 28 30  1  0  0  0  0
 28 31  1  0  0  0  0
  2 32  1  0  0  0  0
  4 33  1  0  0  0  0
  6 34  1  0  0  0  0
  8 35  1  0  0  0  0
  9 36  1  0  0  0  0
 12 37  1  0  0  0  0
 13 38  1  0  0  0  0
 14 39  1  0  0  0  0
 17 40  1  0  0  0  0
 19 41  1  0  0  0  0
 20 42  1  0  0  0  0
 25 43  1  0  0  0  0
 25 44  1  0  0  0  0
 25 45  1  0  0  0  0
 26 46  1  0  0  0  0
M  END
> <ID>
46

> <IC50[uM]>
1.734

$$$$
46
  -OEChem-05192314323D
 Structure written by MMmdl.
 46 49  0     0  0  0  0  0  0999 V2000
   93.0435   49.8102  267.7232 C   0  0  0  0  0  0  0  0  0  0  0  0
   92.5273   47.3329  266.4277 C   0  0  0  0  0  0  0  0  0  0  0  0
   91.5132   48.2719  266.5844 C   0  0  0  0  0  0  0  0  0  0  0  0
   91.7777   49.4816  267.2148 C   0  0  0  0  0  0  0  0  0  0  0  0
   93.8278   47.6124  266.9005 C   0  0  0  0  0  0  0  0  0  0  0  0
   94.1023   48.8575  267.5509 C   0  0  0  0  0  0  0  0  0  0  0  0
   95.3591   49.1150  268.0280 N   0  0  0  0  0  0  0  0  0  0  0  0
   96.3141   48.1685  267.8581 C   0  0  0  0  0  0  0  0  0  0  0  0
   96.0343   46.9585  267.2294 C   0  0  0  0  0  0  0  0  0  0  0  0
   94.8031   46.6694  266.7522 N   0  0  0  0  0  0  0  0  0  0  0  0
   93.2132   51.0616  268.5051 C   0  0  0  0  0  0  0  0  0  0  0  0
   92.2931   51.3561  269.5168 C   0  0  0  0  0  0  0  0  0  0  0  0
   92.4526   52.4703  270.3218 C   0  0  0  0  0  0  0  0  0  0  0  0
   94.2814   51.9348  268.2910 C   0  0  0  0  0  0  0  0  0  0  0  0
   90.1979   47.9914  266.1949 N   0  0  0  0  0  0  0  0  0  0  0  0
   89.6525   47.2396  265.1468 C   0  0  0  0  0  0  0  0  0  0  0  0
   90.3884   46.9960  263.9809 C   0  0  0  0  0  0  0  0  0  0  0  0
   89.8924   46.3415  262.9026 N   0  0  0  0  0  0  0  0  0  0  0  0
   88.6191   45.8808  262.9839 C   0  0  0  0  0  0  0  0  0  0  0  0
   87.8123   46.0650  264.1082 C   0  0  0  0  0  0  0  0  0  0  0  0
   88.3278   46.7653  265.2033 C   0  0  0  0  0  0  0  0  0  0  0  0
   87.2988   46.9262  266.6745 S   0  0  0  0  0  0  0  0  0  0  0  0
   87.6993   48.1509  267.3900 O   0  0  0  0  0  0  0  0  0  0  0  0
   85.9037   46.7478  266.2781 O   0  0  0  0  0  0  0  0  0  0  0  0
   87.8417   45.4403  267.6817 C   0  0  0  0  0  0  0  0  0  0  0  0
   94.4415   53.0681  269.0925 C   0  0  0  0  0  0  0  0  0  0  0  0
   93.5190   53.3406  270.1122 C   0  0  0  0  0  0  0  0  0  0  0  0
   93.6396   54.5887  270.9796 C   0  0  0  0  0  0  0  0  0  0  0  0
   94.4603   55.4970  270.4478 F   0  0  0  0  0  0  0  0  0  0  0  0
   92.4459   55.1254  271.1248 F   0  0  0  0  0  0  0  0  0  0  0  0
   94.0622   54.3038  272.1875 F   0  0  0  0  0  0  0  0  0  0  0  0
   92.3197   46.3897  265.9442 H   0  0  0  0  0  0  0  0  0  0  0  0
   90.9762   50.1982  267.3177 H   0  0  0  0  0  0  0  0  0  0  0  0
   97.1198   48.6412  267.2772 H   0  0  0  0  0  0  0  0  0  0  0  0
   96.6850   47.9178  268.8629 H   0  0  0  0  0  0  0  0  0  0  0  0
   96.8237   46.2297  267.1197 H   0  0  0  0  0  0  0  0  0  0  0  0
   91.4460   50.7044  269.6719 H   0  0  0  0  0  0  0  0  0  0  0  0
   91.7471   52.6656  271.1158 H   0  0  0  0  0  0  0  0  0  0  0  0
   94.9889   51.7329  267.5003 H   0  0  0  0  0  0  0  0  0  0  0  0
   91.4081   47.3493  263.9384 H   0  0  0  0  0  0  0  0  0  0  0  0
   88.2103   45.3464  262.1391 H   0  0  0  0  0  0  0  0  0  0  0  0
   86.8062   45.6730  264.1318 H   0  0  0  0  0  0  0  0  0  0  0  0
   87.2815   45.4136  268.6280 H   0  0  0  0  0  0  0  0  0  0  0  0
   87.6441   44.5198  267.1128 H   0  0  0  0  0  0  0  0  0  0  0  0
   88.9182   45.5156  267.8950 H   0  0  0  0  0  0  0  0  0  0  0  0
   95.2756   53.7338  268.9265 H   0  0  0  0  0  0  0  0  0  0  0  0
  1  4  2  0  0  0  0
  1  6  1  0  0  0  0
  1 11  1  0  0  0  0
  2  3  1  0  0  0  0
  2  5  2  0  0  0  0
  3  4  1  0  0  0  0
  3 15  2  3  0  0  0
  5  6  1  0  0  0  0
  5 10  1  0  0  0  0
  6  7  2  0  0  0  0
  7  8  1  0  0  0  0
  8  9  1  0  0  0  0
  9 10  2  0  0  0  0
 11 12  2  0  0  0  0
 11 14  1  0  0  0  0
 12 13  1  0  0  0  0
 13 27  2  0  0  0  0
 14 26  2  0  0  0  0
 15 16  1  0  0  0  0
 16 17  2  0  0  0  0
 16 21  1  0  0  0  0
 17 18  1  0  0  0  0
 18 19  2  0  0  0  0
 19 20  1  0  0  0  0
 20 21  2  0  0  0  0
 21 22  1  0  0  0  0
 22 23  2  0  0  0  0
 22 24  2  0  0  0  0
 22 25  1  0  0  0  0
 26 27  1  0  0  0  0
 27 28  1  0  0  0  0
 28 29  1  0  0  0  0
 28 30  1  0  0  0  0
 28 31  1  0  0  0  0
  2 32  1  0  0  0  0
  4 33  1  0  0  0  0
  8 34  1  0  0  0  0
  8 35  1  0  0  0  0
  9 36  1  0  0  0  0
 12 37  1  0  0  0  0
 13 38  1  0  0  0  0
 14 39  1  0  0  0  0
 17 40  1  0  0  0  0
 19 41  1  0  0  0  0
 20 42  1  0  0  0  0
 25 43  1  0  0  0  0
 25 44  1  0  0  0  0
 25 45  1  0  0  0  0
 26 46  1  0  0  0  0
M  END
> <ID>
46

> <IC50[uM]>
1.734

$$$$
