23
  -OEChem-05192314323D
 Structure written by MMmdl.
 44 48  0     0  0  0  0  0  0999 V2000
   90.2666   48.1240  266.3159 N   0  0  0  0  0  0  0  0  0  0  0  0
   91.6053   48.3302  266.6785 C   0  0  0  0  0  0  0  0  0  0  0  0
   91.9655   49.5283  267.2824 C   0  0  0  0  0  0  0  0  0  0  0  0
   93.2798   49.7880  267.6955 C   0  0  0  0  0  0  0  0  0  0  0  0
   94.2675   48.7692  267.5233 C   0  0  0  0  0  0  0  0  0  0  0  0
   93.8901   47.5291  266.9246 C   0  0  0  0  0  0  0  0  0  0  0  0
   92.5604   47.3362  266.4923 C   0  0  0  0  0  0  0  0  0  0  0  0
   93.5816   51.0865  268.3410 C   0  0  0  0  0  0  0  0  0  0  0  0
   94.5539   51.9289  267.7999 C   0  0  0  0  0  0  0  0  0  0  0  0
   94.8419   53.1599  268.3769 C   0  0  0  0  0  0  0  0  0  0  0  0
   94.1340   53.5695  269.5200 C   0  0  0  0  0  0  0  0  0  0  0  0
   93.1794   52.6828  270.0955 C   0  0  0  0  0  0  0  0  0  0  0  0
   92.8885   51.4503  269.4975 C   0  0  0  0  0  0  0  0  0  0  0  0
   94.1379   54.7246  270.3295 C   0  0  0  0  0  0  0  0  0  0  0  0
   93.3231   54.5023  271.3969 C   0  0  0  0  0  0  0  0  0  0  0  0
   92.7270   53.2828  271.2572 N   0  0  0  0  0  0  0  0  0  0  0  0
   91.8143   52.7068  272.2360 C   0  0  0  0  0  0  0  0  0  0  0  0
   94.7937   46.5216  266.7799 N   0  0  0  0  0  0  0  0  0  0  0  0
   96.0626   46.7418  267.2021 C   0  0  0  0  0  0  0  0  0  0  0  0
   96.4462   47.9561  267.7601 C   0  0  0  0  0  0  0  0  0  0  0  0
   95.5561   48.9613  267.9464 N   0  0  0  0  0  0  0  0  0  0  0  0
   89.7286   47.3554  265.2768 C   0  0  0  0  0  0  0  0  0  0  0  0
   90.4324   47.1276  264.0879 C   0  0  0  0  0  0  0  0  0  0  0  0
   89.9168   46.4329  263.0385 N   0  0  0  0  0  0  0  0  0  0  0  0
   88.6627   45.9292  263.1762 C   0  0  0  0  0  0  0  0  0  0  0  0
   87.8956   46.1024  264.3286 C   0  0  0  0  0  0  0  0  0  0  0  0
   88.4329   46.8391  265.3862 C   0  0  0  0  0  0  0  0  0  0  0  0
   89.5947   48.5974  266.8855 H   0  0  0  0  0  0  0  0  0  0  0  0
   91.2093   50.2834  267.4386 H   0  0  0  0  0  0  0  0  0  0  0  0
   92.2822   46.4092  266.0130 H   0  0  0  0  0  0  0  0  0  0  0  0
   95.0923   51.6184  266.9167 H   0  0  0  0  0  0  0  0  0  0  0  0
   95.6032   53.7964  267.9506 H   0  0  0  0  0  0  0  0  0  0  0  0
   92.1431   50.7943  269.9222 H   0  0  0  0  0  0  0  0  0  0  0  0
   94.6927   55.6307  270.1355 H   0  0  0  0  0  0  0  0  0  0  0  0
   93.1725   55.1823  272.2224 H   0  0  0  0  0  0  0  0  0  0  0  0
   91.6454   53.4278  273.0494 H   0  0  0  0  0  0  0  0  0  0  0  0
   90.8560   52.4717  271.7497 H   0  0  0  0  0  0  0  0  0  0  0  0
   92.2522   51.7856  272.6478 H   0  0  0  0  0  0  0  0  0  0  0  0
   96.7945   45.9539  267.1025 H   0  0  0  0  0  0  0  0  0  0  0  0
   97.4759   48.1017  268.0515 H   0  0  0  0  0  0  0  0  0  0  0  0
   91.4336   47.5229  263.9999 H   0  0  0  0  0  0  0  0  0  0  0  0
   88.2399   45.3687  262.3556 H   0  0  0  0  0  0  0  0  0  0  0  0
   86.9063   45.6754  264.4012 H   0  0  0  0  0  0  0  0  0  0  0  0
   87.8530   47.0089  266.2813 H   0  0  0  0  0  0  0  0  0  0  0  0
  1  2  1  0  0  0  0
  1 22  1  0  0  0  0
  2  3  2  0  0  0  0
  2  7  1  0  0  0  0
  3  4  1  0  0  0  0
  4  5  2  0  0  0  0
  4  8  1  0  0  0  0
  5 21  1  0  0  0  0
  5  6  1  0  0  0  0
  6  7  2  0  0  0  0
  6 18  1  0  0  0  0
  8  9  2  0  0  0  0
  8 13  1  0  0  0  0
  9 10  1  0  0  0  0
 10 11  2  0  0  0  0
 11 12  1  0  0  0  0
 11 14  1  0  0  0  0
 12 13  2  0  0  0  0
 12 16  1  0  0  0  0
 14 15  2  0  0  0  0
 15 16  1  0  0  0  0
 16 17  1  0  0  0  0
 18 19  2  0  0  0  0
 19 20  1  0  0  0  0
 20 21  2  0  0  0  0
 22 23  2  0  0  0  0
 22 27  1  0  0  0  0
 23 24  1  0  0  0  0
 24 25  2  0  0  0  0
 25 26  1  0  0  0  0
 26 27  2  0  0  0  0
  1 28  1  0  0  0  0
  3 29  1  0  0  0  0
  7 30  1  0  0  0  0
  9 31  1  0  0  0  0
 10 32  1  0  0  0  0
 13 33  1  0  0  0  0
 14 34  1  0  0  0  0
 15 35  1  0  0  0  0
 17 36  1  0  0  0  0
 17 37  1  0  0  0  0
 17 38  1  0  0  0  0
 19 39  1  0  0  0  0
 20 40  1  0  0  0  0
 23 41  1  0  0  0  0
 25 42  1  0  0  0  0
 26 43  1  0  0  0  0
 27 44  1  0  0  0  0
M  END
> <ID>
23

> <IC50[uM]>
1.58

$$$$
23
  -OEChem-05192314323D
 Structure written by MMmdl.
 44 48  0     0  0  0  0  0  0999 V2000
   90.2666   48.1240  266.3159 N   0  0  0  0  0  0  0  0  0  0  0  0
   91.6053   48.3302  266.6785 C   0  0  0  0  0  0  0  0  0  0  0  0
   91.9655   49.5283  267.2824 C   0  0  0  0  0  0  0  0  0  0  0  0
   93.2798   49.7880  267.6955 C   0  0  0  0  0  0  0  0  0  0  0  0
   94.2675   48.7692  267.5233 C   0  0  0  0  0  0  0  0  0  0  0  0
   93.8901   47.5291  266.9246 C   0  0  0  0  0  0  0  0  0  0  0  0
   92.5604   47.3362  266.4923 C   0  0  0  0  0  0  0  0  0  0  0  0
   93.5816   51.0865  268.3410 C   0  0  0  0  0  0  0  0  0  0  0  0
   94.5539   51.9289  267.7999 C   0  0  0  0  0  0  0  0  0  0  0  0
   94.8419   53.1599  268.3769 C   0  0  0  0  0  0  0  0  0  0  0  0
   94.1340   53.5695  269.5200 C   0  0  0  0  0  0  0  0  0  0  0  0
   93.1794   52.6828  270.0955 C   0  0  0  0  0  0  0  0  0  0  0  0
   92.8885   51.4503  269.4975 C   0  0  0  0  0  0  0  0  0  0  0  0
   94.1379   54.7246  270.3295 C   0  0  0  0  0  0  0  0  0  0  0  0
   93.3231   54.5023  271.3969 C   0  0  0  0  0  0  0  0  0  0  0  0
   92.7270   53.2828  271.2572 N   0  0  0  0  0  0  0  0  0  0  0  0
   91.8143   52.7068  272.2360 C   0  0  0  0  0  0  0  0  0  0  0  0
   94.7937   46.5216  266.7799 N   0  0  0  0  0  0  0  0  0  0  0  0
   96.0626   46.7418  267.2021 C   0  0  0  0  0  0  0  0  0  0  0  0
   96.4462   47.9561  267.7601 C   0  0  0  0  0  0  0  0  0  0  0  0
   95.5561   48.9613  267.9464 N   0  0  0  0  0  0  0  0  0  0  0  0
   89.7286   47.3554  265.2768 C   0  0  0  0  0  0  0  0  0  0  0  0
   90.4324   47.1276  264.0879 C   0  0  0  0  0  0  0  0  0  0  0  0
   89.9168   46.4329  263.0385 N   0  0  0  0  0  0  0  0  0  0  0  0
   88.6627   45.9292  263.1762 C   0  0  0  0  0  0  0  0  0  0  0  0
   87.8956   46.1024  264.3286 C   0  0  0  0  0  0  0  0  0  0  0  0
   88.4329   46.8391  265.3862 C   0  0  0  0  0  0  0  0  0  0  0  0
   91.2093   50.2834  267.4386 H   0  0  0  0  0  0  0  0  0  0  0  0
   92.2822   46.4092  266.0130 H   0  0  0  0  0  0  0  0  0  0  0  0
   95.0923   51.6184  266.9167 H   0  0  0  0  0  0  0  0  0  0  0  0
   95.6032   53.7964  267.9506 H   0  0  0  0  0  0  0  0  0  0  0  0
   92.1431   50.7943  269.9222 H   0  0  0  0  0  0  0  0  0  0  0  0
   94.6927   55.6307  270.1355 H   0  0  0  0  0  0  0  0  0  0  0  0
   93.1725   55.1823  272.2224 H   0  0  0  0  0  0  0  0  0  0  0  0
   91.6454   53.4278  273.0494 H   0  0  0  0  0  0  0  0  0  0  0  0
   90.8560   52.4717  271.7497 H   0  0  0  0  0  0  0  0  0  0  0  0
   92.2522   51.7856  272.6478 H   0  0  0  0  0  0  0  0  0  0  0  0
   94.5296   45.6463  266.3748 H   0  0  0  0  0  0  0  0  0  0  0  0
   96.7945   45.9539  267.1025 H   0  0  0  0  0  0  0  0  0  0  0  0
   97.4759   48.1017  268.0515 H   0  0  0  0  0  0  0  0  0  0  0  0
   91.4336   47.5229  263.9999 H   0  0  0  0  0  0  0  0  0  0  0  0
   88.2399   45.3687  262.3556 H   0  0  0  0  0  0  0  0  0  0  0  0
   86.9063   45.6754  264.4012 H   0  0  0  0  0  0  0  0  0  0  0  0
   87.8530   47.0089  266.2813 H   0  0  0  0  0  0  0  0  0  0  0  0
  1  2  2  0  0  0  0
  1 22  1  0  0  0  0
  2  3  1  0  0  0  0
  2  7  1  0  0  0  0
  3  4  2  0  0  0  0
  4  5  1  0  0  0  0
  4  8  1  0  0  0  0
  5 21  2  0  0  0  0
  5  6  1  0  0  0  0
  6  7  2  0  0  0  0
  6 18  1  0  0  0  0
  8  9  2  0  0  0  0
  8 13  1  0  0  0  0
  9 10  1  0  0  0  0
 10 11  2  0  0  0  0
 11 12  1  0  0  0  0
 11 14  1  0  0  0  0
 12 13  2  0  0  0  0
 12 16  1  0  0  0  0
 14 15  2  0  0  0  0
 15 16  1  0  0  0  0
 16 17  1  0  0  0  0
 18 19  1  0  0  0  0
 19 20  2  0  0  0  0
 20 21  1  0  0  0  0
 22 23  2  0  0  0  0
 22 27  1  0  0  0  0
 23 24  1  0  0  0  0
 24 25  2  0  0  0  0
 25 26  1  0  0  0  0
 26 27  2  0  0  0  0
  3 28  1  0  0  0  0
  7 29  1  0  0  0  0
  9 30  1  0  0  0  0
 10 31  1  0  0  0  0
 13 32  1  0  0  0  0
 14 33  1  0  0  0  0
 15 34  1  0  0  0  0
 17 35  1  0  0  0  0
 17 36  1  0  0  0  0
 17 37  1  0  0  0  0
 18 38  1  0  0  0  0
 19 39  1  0  0  0  0
 20 40  1  0  0  0  0
 23 41  1  0  0  0  0
 25 42  1  0  0  0  0
 26 43  1  0  0  0  0
 27 44  1  0  0  0  0
M  END
> <ID>
23

> <IC50[uM]>
1.58

$$$$
23
  -OEChem-05192314323D
 Structure written by MMmdl.
 44 48  0     0  0  0  0  0  0999 V2000
   90.2666   48.1240  266.3159 N   0  0  0  0  0  0  0  0  0  0  0  0
   91.6053   48.3302  266.6785 C   0  0  0  0  0  0  0  0  0  0  0  0
   91.9655   49.5283  267.2824 C   0  0  0  0  0  0  0  0  0  0  0  0
   93.2798   49.7880  267.6955 C   0  0  0  0  0  0  0  0  0  0  0  0
   94.2675   48.7692  267.5233 C   0  0  0  0  0  0  0  0  0  0  0  0
   93.8901   47.5291  266.9246 C   0  0  0  0  0  0  0  0  0  0  0  0
   92.5604   47.3362  266.4923 C   0  0  0  0  0  0  0  0  0  0  0  0
   93.5816   51.0865  268.3410 C   0  0  0  0  0  0  0  0  0  0  0  0
   94.5539   51.9289  267.7999 C   0  0  0  0  0  0  0  0  0  0  0  0
   94.8419   53.1599  268.3769 C   0  0  0  0  0  0  0  0  0  0  0  0
   94.1340   53.5695  269.5200 C   0  0  0  0  0  0  0  0  0  0  0  0
   93.1794   52.6828  270.0955 C   0  0  0  0  0  0  0  0  0  0  0  0
   92.8885   51.4503  269.4975 C   0  0  0  0  0  0  0  0  0  0  0  0
   94.1379   54.7246  270.3295 C   0  0  0  0  0  0  0  0  0  0  0  0
   93.3231   54.5023  271.3969 C   0  0  0  0  0  0  0  0  0  0  0  0
   92.7270   53.2828  271.2572 N   0  0  0  0  0  0  0  0  0  0  0  0
   91.8143   52.7068  272.2360 C   0  0  0  0  0  0  0  0  0  0  0  0
   94.7937   46.5216  266.7799 N   0  0  0  0  0  0  0  0  0  0  0  0
   96.0626   46.7418  267.2021 C   0  0  0  0  0  0  0  0  0  0  0  0
   96.4462   47.9561  267.7601 C   0  0  0  0  0  0  0  0  0  0  0  0
   95.5561   48.9613  267.9464 N   0  0  0  0  0  0  0  0  0  0  0  0
   89.7286   47.3554  265.2768 C   0  0  0  0  0  0  0  0  0  0  0  0
   90.4324   47.1276  264.0879 C   0  0  0  0  0  0  0  0  0  0  0  0
   89.9168   46.4329  263.0385 N   0  0  0  0  0  0  0  0  0  0  0  0
   88.6627   45.9292  263.1762 C   0  0  0  0  0  0  0  0  0  0  0  0
   87.8956   46.1024  264.3286 C   0  0  0  0  0  0  0  0  0  0  0  0
   88.4329   46.8391  265.3862 C   0  0  0  0  0  0  0  0  0  0  0  0
   91.2093   50.2834  267.4386 H   0  0  0  0  0  0  0  0  0  0  0  0
   92.1877   46.4403  267.0104 H   0  0  0  0  0  0  0  0  0  0  0  0
   92.6060   47.1419  265.4106 H   0  0  0  0  0  0  0  0  0  0  0  0
   95.0923   51.6184  266.9167 H   0  0  0  0  0  0  0  0  0  0  0  0
   95.6032   53.7964  267.9506 H   0  0  0  0  0  0  0  0  0  0  0  0
   92.1431   50.7943  269.9222 H   0  0  0  0  0  0  0  0  0  0  0  0
   94.6927   55.6307  270.1355 H   0  0  0  0  0  0  0  0  0  0  0  0
   93.1725   55.1823  272.2224 H   0  0  0  0  0  0  0  0  0  0  0  0
   91.6454   53.4278  273.0494 H   0  0  0  0  0  0  0  0  0  0  0  0
   90.8560   52.4717  271.7497 H   0  0  0  0  0  0  0  0  0  0  0  0
   92.2522   51.7856  272.6478 H   0  0  0  0  0  0  0  0  0  0  0  0
   96.7945   45.9539  267.1025 H   0  0  0  0  0  0  0  0  0  0  0  0
   97.4759   48.1017  268.0515 H   0  0  0  0  0  0  0  0  0  0  0  0
   91.4336   47.5229  263.9999 H   0  0  0  0  0  0  0  0  0  0  0  0
   88.2399   45.3687  262.3556 H   0  0  0  0  0  0  0  0  0  0  0  0
   86.9063   45.6754  264.4012 H   0  0  0  0  0  0  0  0  0  0  0  0
   87.8530   47.0089  266.2813 H   0  0  0  0  0  0  0  0  0  0  0  0
  1  2  2  0  0  0  0
  1 22  1  0  0  0  0
  2  3  1  0  0  0  0
  2  7  1  0  0  0  0
  3  4  2  0  0  0  0
  4  5  1  0  0  0  0
  4  8  1  0  0  0  0
  5 21  2  0  0  0  0
  5  6  1  0  0  0  0
  6  7  1  0  0  0  0
  6 18  2  0  0  0  0
  8  9  2  0  0  0  0
  8 13  1  0  0  0  0
  9 10  1  0  0  0  0
 10 11  2  0  0  0  0
 11 12  1  0  0  0  0
 11 14  1  0  0  0  0
 12 13  2  0  0  0  0
 12 16  1  0  0  0  0
 14 15  2  0  0  0  0
 15 16  1  0  0  0  0
 16 17  1  0  0  0  0
 18 19  1  0  0  0  0
 19 20  2  0  0  0  0
 20 21  1  0  0  0  0
 22 23  2  0  0  0  0
 22 27  1  0  0  0  0
 23 24  1  0  0  0  0
 24 25  2  0  0  0  0
 25 26  1  0  0  0  0
 26 27  2  0  0  0  0
  3 28  1  0  0  0  0
  7 29  1  0  0  0  0
  7 30  1  0  0  0  0
  9 31  1  0  0  0  0
 10 32  1  0  0  0  0
 13 33  1  0  0  0  0
 14 34  1  0  0  0  0
 15 35  1  0  0  0  0
 17 36  1  0  0  0  0
 17 37  1  0  0  0  0
 17 38  1  0  0  0  0
 19 39  1  0  0  0  0
 20 40  1  0  0  0  0
 23 41  1  0  0  0  0
 25 42  1  0  0  0  0
 26 43  1  0  0  0  0
 27 44  1  0  0  0  0
M  END
> <ID>
23

> <IC50[uM]>
1.58

$$$$
23
  -OEChem-05192314323D
 Structure written by MMmdl.
 44 48  0     0  0  0  0  0  0999 V2000
   90.2666   48.1240  266.3159 N   0  0  0  0  0  0  0  0  0  0  0  0
   91.6053   48.3302  266.6785 C   0  0  0  0  0  0  0  0  0  0  0  0
   91.9655   49.5283  267.2824 C   0  0  0  0  0  0  0  0  0  0  0  0
   93.2798   49.7880  267.6955 C   0  0  0  0  0  0  0  0  0  0  0  0
   94.2675   48.7692  267.5233 C   0  0  0  0  0  0  0  0  0  0  0  0
   93.8901   47.5291  266.9246 C   0  0  0  0  0  0  0  0  0  0  0  0
   92.5604   47.3362  266.4923 C   0  0  0  0  0  0  0  0  0  0  0  0
   93.5816   51.0865  268.3410 C   0  0  0  0  0  0  0  0  0  0  0  0
   94.5539   51.9289  267.7999 C   0  0  0  0  0  0  0  0  0  0  0  0
   94.8419   53.1599  268.3769 C   0  0  0  0  0  0  0  0  0  0  0  0
   94.1340   53.5695  269.5200 C   0  0  0  0  0  0  0  0  0  0  0  0
   93.1794   52.6828  270.0955 C   0  0  0  0  0  0  0  0  0  0  0  0
   92.8885   51.4503  269.4975 C   0  0  0  0  0  0  0  0  0  0  0  0
   94.1379   54.7246  270.3295 C   0  0  0  0  0  0  0  0  0  0  0  0
   93.3231   54.5023  271.3969 C   0  0  0  0  0  0  0  0  0  0  0  0
   92.7270   53.2828  271.2572 N   0  0  0  0  0  0  0  0  0  0  0  0
   91.8143   52.7068  272.2360 C   0  0  0  0  0  0  0  0  0  0  0  0
   94.7937   46.5216  266.7799 N   0  0  0  0  0  0  0  0  0  0  0  0
   96.0626   46.7418  267.2021 C   0  0  0  0  0  0  0  0  0  0  0  0
   96.4462   47.9561  267.7601 C   0  0  0  0  0  0  0  0  0  0  0  0
   95.5561   48.9613  267.9464 N   0  0  0  0  0  0  0  0  0  0  0  0
   89.7286   47.3554  265.2768 C   0  0  0  0  0  0  0  0  0  0  0  0
   90.4324   47.1276  264.0879 C   0  0  0  0  0  0  0  0  0  0  0  0
   89.9168   46.4329  263.0385 N   0  0  0  0  0  0  0  0  0  0  0  0
   88.6627   45.9292  263.1762 C   0  0  0  0  0  0  0  0  0  0  0  0
   87.8956   46.1024  264.3286 C   0  0  0  0  0  0  0  0  0  0  0  0
   88.4329   46.8391  265.3862 C   0  0  0  0  0  0  0  0  0  0  0  0
   91.7048   50.3233  266.5682 H   0  0  0  0  0  0  0  0  0  0  0  0
   91.3368   49.6214  268.1803 H   0  0  0  0  0  0  0  0  0  0  0  0
   92.2822   46.4092  266.0130 H   0  0  0  0  0  0  0  0  0  0  0  0
   95.0923   51.6184  266.9167 H   0  0  0  0  0  0  0  0  0  0  0  0
   95.6032   53.7964  267.9506 H   0  0  0  0  0  0  0  0  0  0  0  0
   92.1431   50.7943  269.9222 H   0  0  0  0  0  0  0  0  0  0  0  0
   94.6927   55.6307  270.1355 H   0  0  0  0  0  0  0  0  0  0  0  0
   93.1725   55.1823  272.2224 H   0  0  0  0  0  0  0  0  0  0  0  0
   91.6454   53.4278  273.0494 H   0  0  0  0  0  0  0  0  0  0  0  0
   90.8560   52.4717  271.7497 H   0  0  0  0  0  0  0  0  0  0  0  0
   92.2522   51.7856  272.6478 H   0  0  0  0  0  0  0  0  0  0  0  0
   96.7945   45.9539  267.1025 H   0  0  0  0  0  0  0  0  0  0  0  0
   97.4759   48.1017  268.0515 H   0  0  0  0  0  0  0  0  0  0  0  0
   91.4336   47.5229  263.9999 H   0  0  0  0  0  0  0  0  0  0  0  0
   88.2399   45.3687  262.3556 H   0  0  0  0  0  0  0  0  0  0  0  0
   86.9063   45.6754  264.4012 H   0  0  0  0  0  0  0  0  0  0  0  0
   87.8530   47.0089  266.2813 H   0  0  0  0  0  0  0  0  0  0  0  0
  1  2  2  0  0  0  0
  1 22  1  0  0  0  0
  2  3  1  0  0  0  0
  2  7  1  0  0  0  0
  3  4  1  0  0  0  0
  4  5  2  0  0  0  0
  4  8  1  0  0  0  0
  5 21  1  0  0  0  0
  5  6  1  0  0  0  0
  6  7  2  0  0  0  0
  6 18  1  0  0  0  0
  8  9  2  0  0  0  0
  8 13  1  0  0  0  0
  9 10  1  0  0  0  0
 10 11  2  0  0  0  0
 11 12  1  0  0  0  0
 11 14  1  0  0  0  0
 12 13  2  0  0  0  0
 12 16  1  0  0  0  0
 14 15  2  0  0  0  0
 15 16  1  0  0  0  0
 16 17  1  0  0  0  0
 18 19  2  0  0  0  0
 19 20  1  0  0  0  0
 20 21  2  0  0  0  0
 22 23  2  0  0  0  0
 22 27  1  0  0  0  0
 23 24  1  0  0  0  0
 24 25  2  0  0  0  0
 25 26  1  0  0  0  0
 26 27  2  0  0  0  0
  3 28  1  0  0  0  0
  3 29  1  0  0  0  0
  7 30  1  0  0  0  0
  9 31  1  0  0  0  0
 10 32  1  0  0  0  0
 13 33  1  0  0  0  0
 14 34  1  0  0  0  0
 15 35  1  0  0  0  0
 17 36  1  0  0  0  0
 17 37  1  0  0  0  0
 17 38  1  0  0  0  0
 19 39  1  0  0  0  0
 20 40  1  0  0  0  0
 23 41  1  0  0  0  0
 25 42  1  0  0  0  0
 26 43  1  0  0  0  0
 27 44  1  0  0  0  0
M  END
> <ID>
23

> <IC50[uM]>
1.58

$$$$
23
  -OEChem-05192314323D
 Structure written by MMmdl.
 44 48  0     0  0  0  0  0  0999 V2000
   90.2666   48.1240  266.3159 N   0  0  0  0  0  0  0  0  0  0  0  0
   91.6053   48.3302  266.6785 C   0  0  0  0  0  0  0  0  0  0  0  0
   91.9655   49.5283  267.2824 C   0  0  0  0  0  0  0  0  0  0  0  0
   93.2798   49.7880  267.6955 C   0  0  0  0  0  0  0  0  0  0  0  0
   94.2675   48.7692  267.5233 C   0  0  0  0  0  0  0  0  0  0  0  0
   93.8901   47.5291  266.9246 C   0  0  0  0  0  0  0  0  0  0  0  0
   92.5604   47.3362  266.4923 C   0  0  0  0  0  0  0  0  0  0  0  0
   93.5816   51.0865  268.3410 C   0  0  0  0  0  0  0  0  0  0  0  0
   94.5539   51.9289  267.7999 C   0  0  0  0  0  0  0  0  0  0  0  0
   94.8419   53.1599  268.3769 C   0  0  0  0  0  0  0  0  0  0  0  0
   94.1340   53.5695  269.5200 C   0  0  0  0  0  0  0  0  0  0  0  0
   93.1794   52.6828  270.0955 C   0  0  0  0  0  0  0  0  0  0  0  0
   92.8885   51.4503  269.4975 C   0  0  0  0  0  0  0  0  0  0  0  0
   94.1379   54.7246  270.3295 C   0  0  0  0  0  0  0  0  0  0  0  0
   93.3231   54.5023  271.3969 C   0  0  0  0  0  0  0  0  0  0  0  0
   92.7270   53.2828  271.2572 N   0  0  0  0  0  0  0  0  0  0  0  0
   91.8143   52.7068  272.2360 C   0  0  0  0  0  0  0  0  0  0  0  0
   94.7937   46.5216  266.7799 N   0  0  0  0  0  0  0  0  0  0  0  0
   96.0626   46.7418  267.2021 C   0  0  0  0  0  0  0  0  0  0  0  0
   96.4462   47.9561  267.7601 C   0  0  0  0  0  0  0  0  0  0  0  0
   95.5561   48.9613  267.9464 N   0  0  0  0  0  0  0  0  0  0  0  0
   89.7286   47.3554  265.2768 C   0  0  0  0  0  0  0  0  0  0  0  0
   90.4324   47.1276  264.0879 C   0  0  0  0  0  0  0  0  0  0  0  0
   89.9168   46.4329  263.0385 N   0  0  0  0  0  0  0  0  0  0  0  0
   88.6627   45.9292  263.1762 C   0  0  0  0  0  0  0  0  0  0  0  0
   87.8956   46.1024  264.3286 C   0  0  0  0  0  0  0  0  0  0  0  0
   88.4329   46.8391  265.3862 C   0  0  0  0  0  0  0  0  0  0  0  0
   91.2093   50.2834  267.4386 H   0  0  0  0  0  0  0  0  0  0  0  0
   92.2822   46.4092  266.0130 H   0  0  0  0  0  0  0  0  0  0  0  0
   95.0923   51.6184  266.9167 H   0  0  0  0  0  0  0  0  0  0  0  0
   95.6032   53.7964  267.9506 H   0  0  0  0  0  0  0  0  0  0  0  0
   92.1431   50.7943  269.9222 H   0  0  0  0  0  0  0  0  0  0  0  0
   94.6927   55.6307  270.1355 H   0  0  0  0  0  0  0  0  0  0  0  0
   93.1725   55.1823  272.2224 H   0  0  0  0  0  0  0  0  0  0  0  0
   91.6454   53.4278  273.0494 H   0  0  0  0  0  0  0  0  0  0  0  0
   90.8560   52.4717  271.7497 H   0  0  0  0  0  0  0  0  0  0  0  0
   92.2522   51.7856  272.6478 H   0  0  0  0  0  0  0  0  0  0  0  0
   96.7945   45.9539  267.1025 H   0  0  0  0  0  0  0  0  0  0  0  0
   97.4759   48.1017  268.0515 H   0  0  0  0  0  0  0  0  0  0  0  0
   91.4336   47.5229  263.9999 H   0  0  0  0  0  0  0  0  0  0  0  0
   88.2399   45.3687  262.3556 H   0  0  0  0  0  0  0  0  0  0  0  0
   86.9063   45.6754  264.4012 H   0  0  0  0  0  0  0  0  0  0  0  0
   88.4227   46.1844  266.2701 H   0  0  0  0  0  0  0  0  0  0  0  0
   87.7610   47.6935  265.5551 H   0  0  0  0  0  0  0  0  0  0  0  0
  1  2  1  0  0  0  0
  1 22  2  0  0  0  0
  2  3  2  0  0  0  0
  2  7  1  0  0  0  0
  3  4  1  0  0  0  0
  4  5  2  0  0  0  0
  4  8  1  0  0  0  0
  5 21  1  0  0  0  0
  5  6  1  0  0  0  0
  6  7  2  0  0  0  0
  6 18  1  0  0  0  0
  8  9  2  0  0  0  0
  8 13  1  0  0  0  0
  9 10  1  0  0  0  0
 10 11  2  0  0  0  0
 11 12  1  0  0  0  0
 11 14  1  0  0  0  0
 12 13  2  0  0  0  0
 12 16  1  0  0  0  0
 14 15  2  0  0  0  0
 15 16  1  0  0  0  0
 16 17  1  0  0  0  0
 18 19  2  0  0  0  0
 19 20  1  0  0  0  0
 20 21  2  0  0  0  0
 22 23  1  0  0  0  0
 22 27  1  0  0  0  0
 23 24  2  0  0  0  0
 24 25  1  0  0  0  0
 25 26  2  0  0  0  0
 26 27  1  0  0  0  0
  3 28  1  0  0  0  0
  7 29  1  0  0  0  0
  9 30  1  0  0  0  0
 10 31  1  0  0  0  0
 13 32  1  0  0  0  0
 14 33  1  0  0  0  0
 15 34  1  0  0  0  0
 17 35  1  0  0  0  0
 17 36  1  0  0  0  0
 17 37  1  0  0  0  0
 19 38  1  0  0  0  0
 20 39  1  0  0  0  0
 23 40  1  0  0  0  0
 25 41  1  0  0  0  0
 26 42  1  0  0  0  0
 27 43  1  0  0  0  0
 27 44  1  0  0  0  0
M  END
> <ID>
23

> <IC50[uM]>
1.58

$$$$
23
  -OEChem-05192314323D
 Structure written by MMmdl.
 44 48  0     0  0  0  0  0  0999 V2000
   90.2666   48.1240  266.3159 N   0  0  0  0  0  0  0  0  0  0  0  0
   91.6053   48.3302  266.6785 C   0  0  0  0  0  0  0  0  0  0  0  0
   91.9655   49.5283  267.2824 C   0  0  0  0  0  0  0  0  0  0  0  0
   93.2798   49.7880  267.6955 C   0  0  0  0  0  0  0  0  0  0  0  0
   94.2675   48.7692  267.5233 C   0  0  0  0  0  0  0  0  0  0  0  0
   93.8901   47.5291  266.9246 C   0  0  0  0  0  0  0  0  0  0  0  0
   92.5604   47.3362  266.4923 C   0  0  0  0  0  0  0  0  0  0  0  0
   93.5816   51.0865  268.3410 C   0  0  0  0  0  0  0  0  0  0  0  0
   94.5539   51.9289  267.7999 C   0  0  0  0  0  0  0  0  0  0  0  0
   94.8419   53.1599  268.3769 C   0  0  0  0  0  0  0  0  0  0  0  0
   94.1340   53.5695  269.5200 C   0  0  0  0  0  0  0  0  0  0  0  0
   93.1794   52.6828  270.0955 C   0  0  0  0  0  0  0  0  0  0  0  0
   92.8885   51.4503  269.4975 C   0  0  0  0  0  0  0  0  0  0  0  0
   94.1379   54.7246  270.3295 C   0  0  0  0  0  0  0  0  0  0  0  0
   93.3231   54.5023  271.3969 C   0  0  0  0  0  0  0  0  0  0  0  0
   92.7270   53.2828  271.2572 N   0  0  0  0  0  0  0  0  0  0  0  0
   91.8143   52.7068  272.2360 C   0  0  0  0  0  0  0  0  0  0  0  0
   94.7937   46.5216  266.7799 N   0  0  0  0  0  0  0  0  0  0  0  0
   96.0626   46.7418  267.2021 C   0  0  0  0  0  0  0  0  0  0  0  0
   96.4462   47.9561  267.7601 C   0  0  0  0  0  0  0  0  0  0  0  0
   95.5561   48.9613  267.9464 N   0  0  0  0  0  0  0  0  0  0  0  0
   89.7286   47.3554  265.2768 C   0  0  0  0  0  0  0  0  0  0  0  0
   90.4324   47.1276  264.0879 C   0  0  0  0  0  0  0  0  0  0  0  0
   89.9168   46.4329  263.0385 N   0  0  0  0  0  0  0  0  0  0  0  0
   88.6627   45.9292  263.1762 C   0  0  0  0  0  0  0  0  0  0  0  0
   87.8956   46.1024  264.3286 C   0  0  0  0  0  0  0  0  0  0  0  0
   88.4329   46.8391  265.3862 C   0  0  0  0  0  0  0  0  0  0  0  0
   91.2093   50.2834  267.4386 H   0  0  0  0  0  0  0  0  0  0  0  0
   92.2822   46.4092  266.0130 H   0  0  0  0  0  0  0  0  0  0  0  0
   95.0923   51.6184  266.9167 H   0  0  0  0  0  0  0  0  0  0  0  0
   95.6032   53.7964  267.9506 H   0  0  0  0  0  0  0  0  0  0  0  0
   92.1431   50.7943  269.9222 H   0  0  0  0  0  0  0  0  0  0  0  0
   94.6927   55.6307  270.1355 H   0  0  0  0  0  0  0  0  0  0  0  0
   93.1725   55.1823  272.2224 H   0  0  0  0  0  0  0  0  0  0  0  0
   91.6454   53.4278  273.0494 H   0  0  0  0  0  0  0  0  0  0  0  0
   90.8560   52.4717  271.7497 H   0  0  0  0  0  0  0  0  0  0  0  0
   92.2522   51.7856  272.6478 H   0  0  0  0  0  0  0  0  0  0  0  0
   96.7945   45.9539  267.1025 H   0  0  0  0  0  0  0  0  0  0  0  0
   97.4759   48.1017  268.0515 H   0  0  0  0  0  0  0  0  0  0  0  0
   91.4336   47.5229  263.9999 H   0  0  0  0  0  0  0  0  0  0  0  0
   88.0724   46.3569  262.3524 H   0  0  0  0  0  0  0  0  0  0  0  0
   88.7557   44.8423  263.0349 H   0  0  0  0  0  0  0  0  0  0  0  0
   86.9063   45.6754  264.4012 H   0  0  0  0  0  0  0  0  0  0  0  0
   87.8530   47.0089  266.2813 H   0  0  0  0  0  0  0  0  0  0  0  0
  1  2  1  0  0  0  0
  1 22  2  0  0  0  0
  2  3  2  0  0  0  0
  2  7  1  0  0  0  0
  3  4  1  0  0  0  0
  4  5  2  0  0  0  0
  4  8  1  0  0  0  0
  5 21  1  0  0  0  0
  5  6  1  0  0  0  0
  6  7  2  0  0  0  0
  6 18  1  0  0  0  0
  8  9  2  0  0  0  0
  8 13  1  0  0  0  0
  9 10  1  0  0  0  0
 10 11  2  0  0  0  0
 11 12  1  0  0  0  0
 11 14  1  0  0  0  0
 12 13  2  0  0  0  0
 12 16  1  0  0  0  0
 14 15  2  0  0  0  0
 15 16  1  0  0  0  0
 16 17  1  0  0  0  0
 18 19  2  0  0  0  0
 19 20  1  0  0  0  0
 20 21  2  0  0  0  0
 22 23  1  0  0  0  0
 22 27  1  0  0  0  0
 23 24  2  0  0  0  0
 24 25  1  0  0  0  0
 25 26  1  0  0  0  0
 26 27  2  0  0  0  0
  3 28  1  0  0  0  0
  7 29  1  0  0  0  0
  9 30  1  0  0  0  0
 10 31  1  0  0  0  0
 13 32  1  0  0  0  0
 14 33  1  0  0  0  0
 15 34  1  0  0  0  0
 17 35  1  0  0  0  0
 17 36  1  0  0  0  0
 17 37  1  0  0  0  0
 19 38  1  0  0  0  0
 20 39  1  0  0  0  0
 23 40  1  0  0  0  0
 25 41  1  0  0  0  0
 25 42  1  0  0  0  0
 26 43  1  0  0  0  0
 27 44  1  0  0  0  0
M  END
> <ID>
23

> <IC50[uM]>
1.58

$$$$
23
  -OEChem-05192314323D
 Structure written by MMmdl.
 44 48  0     0  0  0  0  0  0999 V2000
   90.2666   48.1240  266.3159 N   0  0  0  0  0  0  0  0  0  0  0  0
   91.6053   48.3302  266.6785 C   0  0  0  0  0  0  0  0  0  0  0  0
   91.9655   49.5283  267.2824 C   0  0  0  0  0  0  0  0  0  0  0  0
   93.2798   49.7880  267.6955 C   0  0  0  0  0  0  0  0  0  0  0  0
   94.2675   48.7692  267.5233 C   0  0  0  0  0  0  0  0  0  0  0  0
   93.8901   47.5291  266.9246 C   0  0  0  0  0  0  0  0  0  0  0  0
   92.5604   47.3362  266.4923 C   0  0  0  0  0  0  0  0  0  0  0  0
   93.5816   51.0865  268.3410 C   0  0  0  0  0  0  0  0  0  0  0  0
   94.5539   51.9289  267.7999 C   0  0  0  0  0  0  0  0  0  0  0  0
   94.8419   53.1599  268.3769 C   0  0  0  0  0  0  0  0  0  0  0  0
   94.1340   53.5695  269.5200 C   0  0  0  0  0  0  0  0  0  0  0  0
   93.1794   52.6828  270.0955 C   0  0  0  0  0  0  0  0  0  0  0  0
   92.8885   51.4503  269.4975 C   0  0  0  0  0  0  0  0  0  0  0  0
   94.1379   54.7246  270.3295 C   0  0  0  0  0  0  0  0  0  0  0  0
   93.3231   54.5023  271.3969 C   0  0  0  0  0  0  0  0  0  0  0  0
   92.7270   53.2828  271.2572 N   0  0  0  0  0  0  0  0  0  0  0  0
   91.8143   52.7068  272.2360 C   0  0  0  0  0  0  0  0  0  0  0  0
   94.7937   46.5216  266.7799 N   0  0  0  0  0  0  0  0  0  0  0  0
   96.0626   46.7418  267.2021 C   0  0  0  0  0  0  0  0  0  0  0  0
   96.4462   47.9561  267.7601 C   0  0  0  0  0  0  0  0  0  0  0  0
   95.5561   48.9613  267.9464 N   0  0  0  0  0  0  0  0  0  0  0  0
   89.7286   47.3554  265.2768 C   0  0  0  0  0  0  0  0  0  0  0  0
   90.4324   47.1276  264.0879 C   0  0  0  0  0  0  0  0  0  0  0  0
   89.9168   46.4329  263.0385 N   0  0  0  0  0  0  0  0  0  0  0  0
   88.6627   45.9292  263.1762 C   0  0  0  0  0  0  0  0  0  0  0  0
   87.8956   46.1024  264.3286 C   0  0  0  0  0  0  0  0  0  0  0  0
   88.4329   46.8391  265.3862 C   0  0  0  0  0  0  0  0  0  0  0  0
   91.2093   50.2834  267.4386 H   0  0  0  0  0  0  0  0  0  0  0  0
   92.2822   46.4092  266.0130 H   0  0  0  0  0  0  0  0  0  0  0  0
   95.0923   51.6184  266.9167 H   0  0  0  0  0  0  0  0  0  0  0  0
   95.6032   53.7964  267.9506 H   0  0  0  0  0  0  0  0  0  0  0  0
   92.1431   50.7943  269.9222 H   0  0  0  0  0  0  0  0  0  0  0  0
   94.6927   55.6307  270.1355 H   0  0  0  0  0  0  0  0  0  0  0  0
   93.1725   55.1823  272.2224 H   0  0  0  0  0  0  0  0  0  0  0  0
   91.6454   53.4278  273.0494 H   0  0  0  0  0  0  0  0  0  0  0  0
   90.8560   52.4717  271.7497 H   0  0  0  0  0  0  0  0  0  0  0  0
   92.2522   51.7856  272.6478 H   0  0  0  0  0  0  0  0  0  0  0  0
   96.7945   45.9539  267.1025 H   0  0  0  0  0  0  0  0  0  0  0  0
   97.4759   48.1017  268.0515 H   0  0  0  0  0  0  0  0  0  0  0  0
   90.6903   48.1219  263.6944 H   0  0  0  0  0  0  0  0  0  0  0  0
   91.3520   46.5982  264.3780 H   0  0  0  0  0  0  0  0  0  0  0  0
   88.2399   45.3687  262.3556 H   0  0  0  0  0  0  0  0  0  0  0  0
   86.9063   45.6754  264.4012 H   0  0  0  0  0  0  0  0  0  0  0  0
   87.8530   47.0089  266.2813 H   0  0  0  0  0  0  0  0  0  0  0  0
  1  2  1  0  0  0  0
  1 22  2  0  0  0  0
  2  3  2  0  0  0  0
  2  7  1  0  0  0  0
  3  4  1  0  0  0  0
  4  5  2  0  0  0  0
  4  8  1  0  0  0  0
  5 21  1  0  0  0  0
  5  6  1  0  0  0  0
  6  7  2  0  0  0  0
  6 18  1  0  0  0  0
  8  9  2  0  0  0  0
  8 13  1  0  0  0  0
  9 10  1  0  0  0  0
 10 11  2  0  0  0  0
 11 12  1  0  0  0  0
 11 14  1  0  0  0  0
 12 13  2  0  0  0  0
 12 16  1  0  0  0  0
 14 15  2  0  0  0  0
 15 16  1  0  0  0  0
 16 17  1  0  0  0  0
 18 19  2  0  0  0  0
 19 20  1  0  0  0  0
 20 21  2  0  0  0  0
 22 23  1  0  0  0  0
 22 27  1  0  0  0  0
 23 24  1  0  0  0  0
 24 25  2  0  0  0  0
 25 26  1  0  0  0  0
 26 27  2  0  0  0  0
  3 28  1  0  0  0  0
  7 29  1  0  0  0  0
  9 30  1  0  0  0  0
 10 31  1  0  0  0  0
 13 32  1  0  0  0  0
 14 33  1  0  0  0  0
 15 34  1  0  0  0  0
 17 35  1  0  0  0  0
 17 36  1  0  0  0  0
 17 37  1  0  0  0  0
 19 38  1  0  0  0  0
 20 39  1  0  0  0  0
 23 40  1  0  0  0  0
 23 41  1  0  0  0  0
 25 42  1  0  0  0  0
 26 43  1  0  0  0  0
 27 44  1  0  0  0  0
M  END
> <ID>
23

> <IC50[uM]>
1.58

$$$$
23
  -OEChem-05192314323D
 Structure written by MMmdl.
 44 48  0     1  0  0  0  0  0999 V2000
   90.2666   48.1240  266.3159 N   0  0  0  0  0  0  0  0  0  0  0  0
   91.6053   48.3302  266.6785 C   0  0  0  0  0  0  0  0  0  0  0  0
   91.9655   49.5283  267.2824 C   0  0  0  0  0  0  0  0  0  0  0  0
   93.2798   49.7880  267.6955 C   0  0  0  0  0  0  0  0  0  0  0  0
   94.2675   48.7692  267.5233 C   0  0  3  0  0  0  0  0  0  0  0  0
   93.8901   47.5291  266.9246 C   0  0  0  0  0  0  0  0  0  0  0  0
   92.5604   47.3362  266.4923 C   0  0  0  0  0  0  0  0  0  0  0  0
   93.5816   51.0865  268.3410 C   0  0  0  0  0  0  0  0  0  0  0  0
   94.5539   51.9289  267.7999 C   0  0  0  0  0  0  0  0  0  0  0  0
   94.8419   53.1599  268.3769 C   0  0  0  0  0  0  0  0  0  0  0  0
   94.1340   53.5695  269.5200 C   0  0  0  0  0  0  0  0  0  0  0  0
   93.1794   52.6828  270.0955 C   0  0  0  0  0  0  0  0  0  0  0  0
   92.8885   51.4503  269.4975 C   0  0  0  0  0  0  0  0  0  0  0  0
   94.1379   54.7246  270.3295 C   0  0  0  0  0  0  0  0  0  0  0  0
   93.3231   54.5023  271.3969 C   0  0  0  0  0  0  0  0  0  0  0  0
   92.7270   53.2828  271.2572 N   0  0  0  0  0  0  0  0  0  0  0  0
   91.8143   52.7068  272.2360 C   0  0  0  0  0  0  0  0  0  0  0  0
   94.7937   46.5216  266.7799 N   0  0  0  0  0  0  0  0  0  0  0  0
   96.0626   46.7418  267.2021 C   0  0  0  0  0  0  0  0  0  0  0  0
   96.4462   47.9561  267.7601 C   0  0  0  0  0  0  0  0  0  0  0  0
   95.5561   48.9613  267.9464 N   0  0  0  0  0  0  0  0  0  0  0  0
   89.7286   47.3554  265.2768 C   0  0  0  0  0  0  0  0  0  0  0  0
   90.4324   47.1276  264.0879 C   0  0  0  0  0  0  0  0  0  0  0  0
   89.9168   46.4329  263.0385 N   0  0  0  0  0  0  0  0  0  0  0  0
   88.6627   45.9292  263.1762 C   0  0  0  0  0  0  0  0  0  0  0  0
   87.8956   46.1024  264.3286 C   0  0  0  0  0  0  0  0  0  0  0  0
   88.4329   46.8391  265.3862 C   0  0  0  0  0  0  0  0  0  0  0  0
   91.2093   50.2834  267.4386 H   0  0  0  0  0  0  0  0  0  0  0  0
   94.5243   49.1762  266.5341 H   0  0  0  0  0  0  0  0  0  0  0  0
   92.2822   46.4092  266.0130 H   0  0  0  0  0  0  0  0  0  0  0  0
   95.0923   51.6184  266.9167 H   0  0  0  0  0  0  0  0  0  0  0  0
   95.6032   53.7964  267.9506 H   0  0  0  0  0  0  0  0  0  0  0  0
   92.1431   50.7943  269.9222 H   0  0  0  0  0  0  0  0  0  0  0  0
   94.6927   55.6307  270.1355 H   0  0  0  0  0  0  0  0  0  0  0  0
   93.1725   55.1823  272.2224 H   0  0  0  0  0  0  0  0  0  0  0  0
   91.6454   53.4278  273.0494 H   0  0  0  0  0  0  0  0  0  0  0  0
   90.8560   52.4717  271.7497 H   0  0  0  0  0  0  0  0  0  0  0  0
   92.2522   51.7856  272.6478 H   0  0  0  0  0  0  0  0  0  0  0  0
   96.7945   45.9539  267.1025 H   0  0  0  0  0  0  0  0  0  0  0  0
   97.4759   48.1017  268.0515 H   0  0  0  0  0  0  0  0  0  0  0  0
   91.4336   47.5229  263.9999 H   0  0  0  0  0  0  0  0  0  0  0  0
   88.2399   45.3687  262.3556 H   0  0  0  0  0  0  0  0  0  0  0  0
   86.9063   45.6754  264.4012 H   0  0  0  0  0  0  0  0  0  0  0  0
   87.8530   47.0089  266.2813 H   0  0  0  0  0  0  0  0  0  0  0  0
  1  2  2  0  0  0  0
  1 22  1  0  0  0  0
  2  3  1  0  0  0  0
  2  7  1  0  0  0  0
  3  4  2  0  0  0  0
  4  5  1  0  0  0  0
  4  8  1  0  0  0  0
  5 21  1  0  0  0  0
  5  6  1  0  0  0  0
  6  7  2  0  0  0  0
  6 18  1  0  0  0  0
  8  9  2  0  0  0  0
  8 13  1  0  0  0  0
  9 10  1  0  0  0  0
 10 11  2  0  0  0  0
 11 12  1  0  0  0  0
 11 14  1  0  0  0  0
 12 13  2  0  0  0  0
 12 16  1  0  0  0  0
 14 15  2  0  0  0  0
 15 16  1  0  0  0  0
 16 17  1  0  0  0  0
 18 19  2  0  0  0  0
 19 20  1  0  0  0  0
 20 21  2  0  0  0  0
 22 23  2  0  0  0  0
 22 27  1  0  0  0  0
 23 24  1  0  0  0  0
 24 25  2  0  0  0  0
 25 26  1  0  0  0  0
 26 27  2  0  0  0  0
  3 28  1  0  0  0  0
  5 29  1  0  0  0  0
  7 30  1  0  0  0  0
  9 31  1  0  0  0  0
 10 32  1  0  0  0  0
 13 33  1  0  0  0  0
 14 34  1  0  0  0  0
 15 35  1  0  0  0  0
 17 36  1  0  0  0  0
 17 37  1  0  0  0  0
 17 38  1  0  0  0  0
 19 39  1  0  0  0  0
 20 40  1  0  0  0  0
 23 41  1  0  0  0  0
 25 42  1  0  0  0  0
 26 43  1  0  0  0  0
 27 44  1  0  0  0  0
M  END
> <ID>
23

> <IC50[uM]>
1.58

$$$$
23
  -OEChem-05192314323D
 Structure written by MMmdl.
 44 48  0     0  0  0  0  0  0999 V2000
   90.2666   48.1240  266.3159 N   0  0  0  0  0  0  0  0  0  0  0  0
   91.6053   48.3302  266.6785 C   0  0  0  0  0  0  0  0  0  0  0  0
   91.9655   49.5283  267.2824 C   0  0  0  0  0  0  0  0  0  0  0  0
   93.2798   49.7880  267.6955 C   0  0  0  0  0  0  0  0  0  0  0  0
   94.2675   48.7692  267.5233 C   0  0  0  0  0  0  0  0  0  0  0  0
   93.8901   47.5291  266.9246 C   0  0  0  0  0  0  0  0  0  0  0  0
   92.5604   47.3362  266.4923 C   0  0  0  0  0  0  0  0  0  0  0  0
   93.5816   51.0865  268.3410 C   0  0  0  0  0  0  0  0  0  0  0  0
   94.5539   51.9289  267.7999 C   0  0  0  0  0  0  0  0  0  0  0  0
   94.8419   53.1599  268.3769 C   0  0  0  0  0  0  0  0  0  0  0  0
   94.1340   53.5695  269.5200 C   0  0  0  0  0  0  0  0  0  0  0  0
   93.1794   52.6828  270.0955 C   0  0  0  0  0  0  0  0  0  0  0  0
   92.8885   51.4503  269.4975 C   0  0  0  0  0  0  0  0  0  0  0  0
   94.1379   54.7246  270.3295 C   0  0  0  0  0  0  0  0  0  0  0  0
   93.3231   54.5023  271.3969 C   0  0  0  0  0  0  0  0  0  0  0  0
   92.7270   53.2828  271.2572 N   0  0  0  0  0  0  0  0  0  0  0  0
   91.8143   52.7068  272.2360 C   0  0  0  0  0  0  0  0  0  0  0  0
   94.7937   46.5216  266.7799 N   0  0  0  0  0  0  0  0  0  0  0  0
   96.0626   46.7418  267.2021 C   0  0  0  0  0  0  0  0  0  0  0  0
   96.4462   47.9561  267.7601 C   0  0  0  0  0  0  0  0  0  0  0  0
   95.5561   48.9613  267.9464 N   0  0  0  0  0  0  0  0  0  0  0  0
   89.7286   47.3554  265.2768 C   0  0  0  0  0  0  0  0  0  0  0  0
   90.4324   47.1276  264.0879 C   0  0  0  0  0  0  0  0  0  0  0  0
   89.9168   46.4329  263.0385 N   0  0  0  0  0  0  0  0  0  0  0  0
   88.6627   45.9292  263.1762 C   0  0  0  0  0  0  0  0  0  0  0  0
   87.8956   46.1024  264.3286 C   0  0  0  0  0  0  0  0  0  0  0  0
   88.4329   46.8391  265.3862 C   0  0  0  0  0  0  0  0  0  0  0  0
   91.2093   50.2834  267.4386 H   0  0  0  0  0  0  0  0  0  0  0  0
   92.2822   46.4092  266.0130 H   0  0  0  0  0  0  0  0  0  0  0  0
   95.0923   51.6184  266.9167 H   0  0  0  0  0  0  0  0  0  0  0  0
   95.6032   53.7964  267.9506 H   0  0  0  0  0  0  0  0  0  0  0  0
   92.1431   50.7943  269.9222 H   0  0  0  0  0  0  0  0  0  0  0  0
   94.6927   55.6307  270.1355 H   0  0  0  0  0  0  0  0  0  0  0  0
   93.1725   55.1823  272.2224 H   0  0  0  0  0  0  0  0  0  0  0  0
   91.6454   53.4278  273.0494 H   0  0  0  0  0  0  0  0  0  0  0  0
   90.8560   52.4717  271.7497 H   0  0  0  0  0  0  0  0  0  0  0  0
   92.2522   51.7856  272.6478 H   0  0  0  0  0  0  0  0  0  0  0  0
   96.7945   45.9539  267.1025 H   0  0  0  0  0  0  0  0  0  0  0  0
   96.8648   47.7243  268.7506 H   0  0  0  0  0  0  0  0  0  0  0  0
   97.2387   48.3591  267.1123 H   0  0  0  0  0  0  0  0  0  0  0  0
   91.4336   47.5229  263.9999 H   0  0  0  0  0  0  0  0  0  0  0  0
   88.2399   45.3687  262.3556 H   0  0  0  0  0  0  0  0  0  0  0  0
   86.9063   45.6754  264.4012 H   0  0  0  0  0  0  0  0  0  0  0  0
   87.8530   47.0089  266.2813 H   0  0  0  0  0  0  0  0  0  0  0  0
  1  2  2  0  0  0  0
  1 22  1  0  0  0  0
  2  3  1  0  0  0  0
  2  7  1  0  0  0  0
  3  4  2  0  0  0  0
  4  5  1  0  0  0  0
  4  8  1  0  0  0  0
  5 21  2  0  0  0  0
  5  6  1  0  0  0  0
  6  7  2  0  0  0  0
  6 18  1  0  0  0  0
  8  9  2  0  0  0  0
  8 13  1  0  0  0  0
  9 10  1  0  0  0  0
 10 11  2  0  0  0  0
 11 12  1  0  0  0  0
 11 14  1  0  0  0  0
 12 13  2  0  0  0  0
 12 16  1  0  0  0  0
 14 15  2  0  0  0  0
 15 16  1  0  0  0  0
 16 17  1  0  0  0  0
 18 19  2  0  0  0  0
 19 20  1  0  0  0  0
 20 21  1  0  0  0  0
 22 23  2  0  0  0  0
 22 27  1  0  0  0  0
 23 24  1  0  0  0  0
 24 25  2  0  0  0  0
 25 26  1  0  0  0  0
 26 27  2  0  0  0  0
  3 28  1  0  0  0  0
  7 29  1  0  0  0  0
  9 30  1  0  0  0  0
 10 31  1  0  0  0  0
 13 32  1  0  0  0  0
 14 33  1  0  0  0  0
 15 34  1  0  0  0  0
 17 35  1  0  0  0  0
 17 36  1  0  0  0  0
 17 37  1  0  0  0  0
 19 38  1  0  0  0  0
 20 39  1  0  0  0  0
 20 40  1  0  0  0  0
 23 41  1  0  0  0  0
 25 42  1  0  0  0  0
 26 43  1  0  0  0  0
 27 44  1  0  0  0  0
M  END
> <ID>
23

> <IC50[uM]>
1.58

$$$$
