57
  -OEChem-05192314313D
 Structure written by MMmdl.
 50 54  0     0  0  0  0  0  0999 V2000
   93.2863   49.8046  267.6850 C   0  0  0  0  0  0  0  0  0  0  0  0
   92.5683   47.3483  266.4663 C   0  0  0  0  0  0  0  0  0  0  0  0
   91.6135   48.3386  266.6756 C   0  0  0  0  0  0  0  0  0  0  0  0
   91.9715   49.5355  267.2896 C   0  0  0  0  0  0  0  0  0  0  0  0
   93.8941   47.5445  266.9029 C   0  0  0  0  0  0  0  0  0  0  0  0
   94.2723   48.7844  267.5084 C   0  0  0  0  0  0  0  0  0  0  0  0
   95.5616   48.9663  267.9305 N   0  0  0  0  0  0  0  0  0  0  0  0
   96.4473   47.9576  267.7370 C   0  0  0  0  0  0  0  0  0  0  0  0
   96.0606   46.7470  267.1769 C   0  0  0  0  0  0  0  0  0  0  0  0
   94.7945   46.5353  266.7507 N   0  0  0  0  0  0  0  0  0  0  0  0
   93.5945   51.1040  268.3281 C   0  0  0  0  0  0  0  0  0  0  0  0
   94.5736   51.9510  267.7909 C   0  0  0  0  0  0  0  0  0  0  0  0
   94.8742   53.1838  268.3688 C   0  0  0  0  0  0  0  0  0  0  0  0
   92.8962   51.4518  269.4841 C   0  0  0  0  0  0  0  0  0  0  0  0
   90.2751   48.1321  266.3186 N   0  0  0  0  0  0  0  0  0  0  0  0
   89.7173   47.3514  265.2910 C   0  0  0  0  0  0  0  0  0  0  0  0
   90.4223   47.1244  264.1010 C   0  0  0  0  0  0  0  0  0  0  0  0
   89.9202   46.4330  263.0469 N   0  0  0  0  0  0  0  0  0  0  0  0
   88.6631   45.9395  263.1640 C   0  0  0  0  0  0  0  0  0  0  0  0
   87.8875   46.0982  264.3114 C   0  0  0  0  0  0  0  0  0  0  0  0
   88.4234   46.8064  265.3954 C   0  0  0  0  0  0  0  0  0  0  0  0
   87.4813   46.8916  266.9240 S   0  0  0  0  0  0  0  0  0  0  0  0
   86.1376   46.3636  266.6658 O   0  0  0  0  0  0  0  0  0  0  0  0
   87.6482   48.2377  267.4791 O   0  0  0  0  0  0  0  0  0  0  0  0
   88.3853   45.6716  268.0379 C   0  0  0  0  0  0  0  0  0  0  0  0
   93.2144   52.6711  270.0767 C   0  0  0  0  0  0  0  0  0  0  0  0
   94.1671   53.5709  269.5134 C   0  0  0  0  0  0  0  0  0  0  0  0
   94.1722   54.7295  270.3422 C   0  0  0  0  0  0  0  0  0  0  0  0
   93.2836   54.5053  271.3550 C   0  0  0  0  0  0  0  0  0  0  0  0
   92.7499   53.2450  271.2433 N   0  0  0  0  0  0  0  0  0  0  0  0
   91.7998   52.6492  272.1755 C   0  0  0  0  0  0  0  0  0  0  0  0
   91.8677   53.3117  273.3272 F   0  0  0  0  0  0  0  0  0  0  0  0
   90.5872   52.7234  271.6286 F   0  0  0  0  0  0  0  0  0  0  0  0
   92.2936   46.4296  265.9695 H   0  0  0  0  0  0  0  0  0  0  0  0
   91.2098   50.2804  267.4665 H   0  0  0  0  0  0  0  0  0  0  0  0
   97.4784   48.0992  268.0255 H   0  0  0  0  0  0  0  0  0  0  0  0
   96.7886   45.9553  267.0793 H   0  0  0  0  0  0  0  0  0  0  0  0
   95.1093   51.6406  266.9060 H   0  0  0  0  0  0  0  0  0  0  0  0
   95.6334   53.8239  267.9442 H   0  0  0  0  0  0  0  0  0  0  0  0
   92.1407   50.8030  269.9020 H   0  0  0  0  0  0  0  0  0  0  0  0
   89.6096   48.6177  266.8854 H   0  0  0  0  0  0  0  0  0  0  0  0
   91.4228   47.5227  264.0183 H   0  0  0  0  0  0  0  0  0  0  0  0
   88.2428   45.3981  262.3294 H   0  0  0  0  0  0  0  0  0  0  0  0
   86.8919   45.6830  264.3640 H   0  0  0  0  0  0  0  0  0  0  0  0
   87.8918   45.6361  269.0203 H   0  0  0  0  0  0  0  0  0  0  0  0
   88.3632   44.6716  267.5803 H   0  0  0  0  0  0  0  0  0  0  0  0
   89.4294   45.9943  268.1636 H   0  0  0  0  0  0  0  0  0  0  0  0
   94.7674   55.6189  270.1969 H   0  0  0  0  0  0  0  0  0  0  0  0
   93.0368   55.2154  272.1304 H   0  0  0  0  0  0  0  0  0  0  0  0
   92.0808   51.5967  272.3282 H   0  0  0  0  0  0  0  0  0  0  0  0
  1  4  2  0  0  0  0
  1  6  1  0  0  0  0
  1 11  1  0  0  0  0
  2  3  2  0  0  0  0
  2  5  1  0  0  0  0
  3  4  1  0  0  0  0
  3 15  1  0  0  0  0
  5  6  2  0  0  0  0
  5 10  1  0  0  0  0
  6  7  1  0  0  0  0
  7  8  2  0  0  0  0
  8  9  1  0  0  0  0
  9 10  2  0  0  0  0
 11 12  2  0  0  0  0
 11 14  1  0  0  0  0
 12 13  1  0  0  0  0
 13 27  2  0  0  0  0
 14 26  2  0  0  0  0
 15 16  1  0  0  0  0
 16 17  2  0  0  0  0
 16 21  1  0  0  0  0
 17 18  1  0  0  0  0
 18 19  2  0  0  0  0
 19 20  1  0  0  0  0
 20 21  2  0  0  0  0
 21 22  1  0  0  0  0
 22 23  2  0  0  0  0
 22 24  2  0  0  0  0
 22 25  1  0  0  0  0
 26 27  1  0  0  0  0
 26 30  1  0  0  0  0
 27 28  1  0  0  0  0
 28 29  2  0  0  0  0
 29 30  1  0  0  0  0
 30 31  1  0  0  0  0
 31 32  1  0  0  0  0
 31 33  1  0  0  0  0
  2 34  1  0  0  0  0
  4 35  1  0  0  0  0
  8 36  1  0  0  0  0
  9 37  1  0  0  0  0
 12 38  1  0  0  0  0
 13 39  1  0  0  0  0
 14 40  1  0  0  0  0
 15 41  1  0  0  0  0
 17 42  1  0  0  0  0
 19 43  1  0  0  0  0
 20 44  1  0  0  0  0
 25 45  1  0  0  0  0
 25 46  1  0  0  0  0
 25 47  1  0  0  0  0
 28 48  1  0  0  0  0
 29 49  1  0  0  0  0
 31 50  1  0  0  0  0
M  END
> <ID>
57

> <IC50[uM]>
0.021

$$$$
57
  -OEChem-05192314313D
 Structure written by MMmdl.
 50 54  0     0  0  0  0  0  0999 V2000
   93.2863   49.8046  267.6850 C   0  0  0  0  0  0  0  0  0  0  0  0
   92.5683   47.3483  266.4663 C   0  0  0  0  0  0  0  0  0  0  0  0
   91.6135   48.3386  266.6756 C   0  0  0  0  0  0  0  0  0  0  0  0
   91.9715   49.5355  267.2896 C   0  0  0  0  0  0  0  0  0  0  0  0
   93.8941   47.5445  266.9029 C   0  0  0  0  0  0  0  0  0  0  0  0
   94.2723   48.7844  267.5084 C   0  0  0  0  0  0  0  0  0  0  0  0
   95.5616   48.9663  267.9305 N   0  0  0  0  0  0  0  0  0  0  0  0
   96.4473   47.9576  267.7370 C   0  0  0  0  0  0  0  0  0  0  0  0
   96.0606   46.7470  267.1769 C   0  0  0  0  0  0  0  0  0  0  0  0
   94.7945   46.5353  266.7507 N   0  0  0  0  0  0  0  0  0  0  0  0
   93.5945   51.1040  268.3281 C   0  0  0  0  0  0  0  0  0  0  0  0
   94.5736   51.9510  267.7909 C   0  0  0  0  0  0  0  0  0  0  0  0
   94.8742   53.1838  268.3688 C   0  0  0  0  0  0  0  0  0  0  0  0
   92.8962   51.4518  269.4841 C   0  0  0  0  0  0  0  0  0  0  0  0
   90.2751   48.1321  266.3186 N   0  0  0  0  0  0  0  0  0  0  0  0
   89.7173   47.3514  265.2910 C   0  0  0  0  0  0  0  0  0  0  0  0
   90.4223   47.1244  264.1010 C   0  0  0  0  0  0  0  0  0  0  0  0
   89.9202   46.4330  263.0469 N   0  0  0  0  0  0  0  0  0  0  0  0
   88.6631   45.9395  263.1640 C   0  0  0  0  0  0  0  0  0  0  0  0
   87.8875   46.0982  264.3114 C   0  0  0  0  0  0  0  0  0  0  0  0
   88.4234   46.8064  265.3954 C   0  0  0  0  0  0  0  0  0  0  0  0
   87.4813   46.8916  266.9240 S   0  0  0  0  0  0  0  0  0  0  0  0
   86.1376   46.3636  266.6658 O   0  0  0  0  0  0  0  0  0  0  0  0
   87.6482   48.2377  267.4791 O   0  0  0  0  0  0  0  0  0  0  0  0
   88.3853   45.6716  268.0379 C   0  0  0  0  0  0  0  0  0  0  0  0
   93.2144   52.6711  270.0767 C   0  0  0  0  0  0  0  0  0  0  0  0
   94.1671   53.5709  269.5134 C   0  0  0  0  0  0  0  0  0  0  0  0
   94.1722   54.7295  270.3422 C   0  0  0  0  0  0  0  0  0  0  0  0
   93.2836   54.5053  271.3550 C   0  0  0  0  0  0  0  0  0  0  0  0
   92.7499   53.2450  271.2433 N   0  0  0  0  0  0  0  0  0  0  0  0
   91.7998   52.6492  272.1755 C   0  0  0  0  0  0  0  0  0  0  0  0
   91.8677   53.3117  273.3272 F   0  0  0  0  0  0  0  0  0  0  0  0
   90.5872   52.7234  271.6286 F   0  0  0  0  0  0  0  0  0  0  0  0
   92.2936   46.4296  265.9695 H   0  0  0  0  0  0  0  0  0  0  0  0
   91.2098   50.2804  267.4665 H   0  0  0  0  0  0  0  0  0  0  0  0
   97.4784   48.0992  268.0255 H   0  0  0  0  0  0  0  0  0  0  0  0
   96.7886   45.9553  267.0793 H   0  0  0  0  0  0  0  0  0  0  0  0
   94.5284   45.6647  266.3368 H   0  0  0  0  0  0  0  0  0  0  0  0
   95.1093   51.6406  266.9060 H   0  0  0  0  0  0  0  0  0  0  0  0
   95.6334   53.8239  267.9442 H   0  0  0  0  0  0  0  0  0  0  0  0
   92.1407   50.8030  269.9020 H   0  0  0  0  0  0  0  0  0  0  0  0
   91.4228   47.5227  264.0183 H   0  0  0  0  0  0  0  0  0  0  0  0
   88.2428   45.3981  262.3294 H   0  0  0  0  0  0  0  0  0  0  0  0
   86.8919   45.6830  264.3640 H   0  0  0  0  0  0  0  0  0  0  0  0
   87.8918   45.6361  269.0203 H   0  0  0  0  0  0  0  0  0  0  0  0
   88.3632   44.6716  267.5803 H   0  0  0  0  0  0  0  0  0  0  0  0
   89.4294   45.9943  268.1636 H   0  0  0  0  0  0  0  0  0  0  0  0
   94.7674   55.6189  270.1969 H   0  0  0  0  0  0  0  0  0  0  0  0
   93.0368   55.2154  272.1304 H   0  0  0  0  0  0  0  0  0  0  0  0
   92.0808   51.5967  272.3282 H   0  0  0  0  0  0  0  0  0  0  0  0
  1  4  2  0  0  0  0
  1  6  1  0  0  0  0
  1 11  1  0  0  0  0
  2  3  1  0  0  0  0
  2  5  2  0  0  0  0
  3  4  1  0  0  0  0
  3 15  2  3  0  0  0
  5  6  1  0  0  0  0
  5 10  1  0  0  0  0
  6  7  2  0  0  0  0
  7  8  1  0  0  0  0
  8  9  2  0  0  0  0
  9 10  1  0  0  0  0
 11 12  2  0  0  0  0
 11 14  1  0  0  0  0
 12 13  1  0  0  0  0
 13 27  2  0  0  0  0
 14 26  2  0  0  0  0
 15 16  1  0  0  0  0
 16 17  2  0  0  0  0
 16 21  1  0  0  0  0
 17 18  1  0  0  0  0
 18 19  2  0  0  0  0
 19 20  1  0  0  0  0
 20 21  2  0  0  0  0
 21 22  1  0  0  0  0
 22 23  2  0  0  0  0
 22 24  2  0  0  0  0
 22 25  1  0  0  0  0
 26 27  1  0  0  0  0
 26 30  1  0  0  0  0
 27 28  1  0  0  0  0
 28 29  2  0  0  0  0
 29 30  1  0  0  0  0
 30 31  1  0  0  0  0
 31 32  1  0  0  0  0
 31 33  1  0  0  0  0
  2 34  1  0  0  0  0
  4 35  1  0  0  0  0
  8 36  1  0  0  0  0
  9 37  1  0  0  0  0
 10 38  1  0  0  0  0
 12 39  1  0  0  0  0
 13 40  1  0  0  0  0
 14 41  1  0  0  0  0
 17 42  1  0  0  0  0
 19 43  1  0  0  0  0
 20 44  1  0  0  0  0
 25 45  1  0  0  0  0
 25 46  1  0  0  0  0
 25 47  1  0  0  0  0
 28 48  1  0  0  0  0
 29 49  1  0  0  0  0
 31 50  1  0  0  0  0
M  END
> <ID>
57

> <IC50[uM]>
0.021

$$$$
57
  -OEChem-05192314313D
 Structure written by MMmdl.
 50 54  0     0  0  0  0  0  0999 V2000
   93.2863   49.8046  267.6850 C   0  0  0  0  0  0  0  0  0  0  0  0
   92.5683   47.3483  266.4663 C   0  0  0  0  0  0  0  0  0  0  0  0
   91.6135   48.3386  266.6756 C   0  0  0  0  0  0  0  0  0  0  0  0
   91.9715   49.5355  267.2896 C   0  0  0  0  0  0  0  0  0  0  0  0
   93.8941   47.5445  266.9029 C   0  0  0  0  0  0  0  0  0  0  0  0
   94.2723   48.7844  267.5084 C   0  0  0  0  0  0  0  0  0  0  0  0
   95.5616   48.9663  267.9305 N   0  0  0  0  0  0  0  0  0  0  0  0
   96.4473   47.9576  267.7370 C   0  0  0  0  0  0  0  0  0  0  0  0
   96.0606   46.7470  267.1769 C   0  0  0  0  0  0  0  0  0  0  0  0
   94.7945   46.5353  266.7507 N   0  0  0  0  0  0  0  0  0  0  0  0
   93.5945   51.1040  268.3281 C   0  0  0  0  0  0  0  0  0  0  0  0
   94.5736   51.9510  267.7909 C   0  0  0  0  0  0  0  0  0  0  0  0
   94.8742   53.1838  268.3688 C   0  0  0  0  0  0  0  0  0  0  0  0
   92.8962   51.4518  269.4841 C   0  0  0  0  0  0  0  0  0  0  0  0
   90.2751   48.1321  266.3186 N   0  0  0  0  0  0  0  0  0  0  0  0
   89.7173   47.3514  265.2910 C   0  0  0  0  0  0  0  0  0  0  0  0
   90.4223   47.1244  264.1010 C   0  0  0  0  0  0  0  0  0  0  0  0
   89.9202   46.4330  263.0469 N   0  0  0  0  0  0  0  0  0  0  0  0
   88.6631   45.9395  263.1640 C   0  0  0  0  0  0  0  0  0  0  0  0
   87.8875   46.0982  264.3114 C   0  0  0  0  0  0  0  0  0  0  0  0
   88.4234   46.8064  265.3954 C   0  0  0  0  0  0  0  0  0  0  0  0
   87.4813   46.8916  266.9240 S   0  0  0  0  0  0  0  0  0  0  0  0
   86.1376   46.3636  266.6658 O   0  0  0  0  0  0  0  0  0  0  0  0
   87.6482   48.2377  267.4791 O   0  0  0  0  0  0  0  0  0  0  0  0
   88.3853   45.6716  268.0379 C   0  0  0  0  0  0  0  0  0  0  0  0
   93.2144   52.6711  270.0767 C   0  0  0  0  0  0  0  0  0  0  0  0
   94.1671   53.5709  269.5134 C   0  0  0  0  0  0  0  0  0  0  0  0
   94.1722   54.7295  270.3422 C   0  0  0  0  0  0  0  0  0  0  0  0
   93.2836   54.5053  271.3550 C   0  0  0  0  0  0  0  0  0  0  0  0
   92.7499   53.2450  271.2433 N   0  0  0  0  0  0  0  0  0  0  0  0
   91.7998   52.6492  272.1755 C   0  0  0  0  0  0  0  0  0  0  0  0
   91.8677   53.3117  273.3272 F   0  0  0  0  0  0  0  0  0  0  0  0
   90.5872   52.7234  271.6286 F   0  0  0  0  0  0  0  0  0  0  0  0
   92.1999   46.4410  266.9673 H   0  0  0  0  0  0  0  0  0  0  0  0
   92.6136   47.1751  265.3810 H   0  0  0  0  0  0  0  0  0  0  0  0
   91.2098   50.2804  267.4665 H   0  0  0  0  0  0  0  0  0  0  0  0
   97.4784   48.0992  268.0255 H   0  0  0  0  0  0  0  0  0  0  0  0
   96.7886   45.9553  267.0793 H   0  0  0  0  0  0  0  0  0  0  0  0
   95.1093   51.6406  266.9060 H   0  0  0  0  0  0  0  0  0  0  0  0
   95.6334   53.8239  267.9442 H   0  0  0  0  0  0  0  0  0  0  0  0
   92.1407   50.8030  269.9020 H   0  0  0  0  0  0  0  0  0  0  0  0
   91.4228   47.5227  264.0183 H   0  0  0  0  0  0  0  0  0  0  0  0
   88.2428   45.3981  262.3294 H   0  0  0  0  0  0  0  0  0  0  0  0
   86.8919   45.6830  264.3640 H   0  0  0  0  0  0  0  0  0  0  0  0
   87.8918   45.6361  269.0203 H   0  0  0  0  0  0  0  0  0  0  0  0
   88.3632   44.6716  267.5803 H   0  0  0  0  0  0  0  0  0  0  0  0
   89.4294   45.9943  268.1636 H   0  0  0  0  0  0  0  0  0  0  0  0
   94.7674   55.6189  270.1969 H   0  0  0  0  0  0  0  0  0  0  0  0
   93.0368   55.2154  272.1304 H   0  0  0  0  0  0  0  0  0  0  0  0
   92.0808   51.5967  272.3282 H   0  0  0  0  0  0  0  0  0  0  0  0
  1  4  2  0  0  0  0
  1  6  1  0  0  0  0
  1 11  1  0  0  0  0
  2  3  1  0  0  0  0
  2  5  1  0  0  0  0
  3  4  1  0  0  0  0
  3 15  2  3  0  0  0
  5  6  2  0  0  0  0
  5 10  1  0  0  0  0
  6  7  1  0  0  0  0
  7  8  2  0  0  0  0
  8  9  1  0  0  0  0
  9 10  2  0  0  0  0
 11 12  2  0  0  0  0
 11 14  1  0  0  0  0
 12 13  1  0  0  0  0
 13 27  2  0  0  0  0
 14 26  2  0  0  0  0
 15 16  1  0  0  0  0
 16 17  2  0  0  0  0
 16 21  1  0  0  0  0
 17 18  1  0  0  0  0
 18 19  2  0  0  0  0
 19 20  1  0  0  0  0
 20 21  2  0  0  0  0
 21 22  1  0  0  0  0
 22 23  2  0  0  0  0
 22 24  2  0  0  0  0
 22 25  1  0  0  0  0
 26 27  1  0  0  0  0
 26 30  1  0  0  0  0
 27 28  1  0  0  0  0
 28 29  2  0  0  0  0
 29 30  1  0  0  0  0
 30 31  1  0  0  0  0
 31 32  1  0  0  0  0
 31 33  1  0  0  0  0
  2 34  1  0  0  0  0
  2 35  1  0  0  0  0
  4 36  1  0  0  0  0
  8 37  1  0  0  0  0
  9 38  1  0  0  0  0
 12 39  1  0  0  0  0
 13 40  1  0  0  0  0
 14 41  1  0  0  0  0
 17 42  1  0  0  0  0
 19 43  1  0  0  0  0
 20 44  1  0  0  0  0
 25 45  1  0  0  0  0
 25 46  1  0  0  0  0
 25 47  1  0  0  0  0
 28 48  1  0  0  0  0
 29 49  1  0  0  0  0
 31 50  1  0  0  0  0
M  END
> <ID>
57

> <IC50[uM]>
0.021

$$$$
57
  -OEChem-05192314313D
 Structure written by MMmdl.
 50 54  0     0  0  0  0  0  0999 V2000
   93.2863   49.8046  267.6850 C   0  0  0  0  0  0  0  0  0  0  0  0
   92.5683   47.3483  266.4663 C   0  0  0  0  0  0  0  0  0  0  0  0
   91.6135   48.3386  266.6756 C   0  0  0  0  0  0  0  0  0  0  0  0
   91.9715   49.5355  267.2896 C   0  0  0  0  0  0  0  0  0  0  0  0
   93.8941   47.5445  266.9029 C   0  0  0  0  0  0  0  0  0  0  0  0
   94.2723   48.7844  267.5084 C   0  0  0  0  0  0  0  0  0  0  0  0
   95.5616   48.9663  267.9305 N   0  0  0  0  0  0  0  0  0  0  0  0
   96.4473   47.9576  267.7370 C   0  0  0  0  0  0  0  0  0  0  0  0
   96.0606   46.7470  267.1769 C   0  0  0  0  0  0  0  0  0  0  0  0
   94.7945   46.5353  266.7507 N   0  0  0  0  0  0  0  0  0  0  0  0
   93.5945   51.1040  268.3281 C   0  0  0  0  0  0  0  0  0  0  0  0
   94.5736   51.9510  267.7909 C   0  0  0  0  0  0  0  0  0  0  0  0
   94.8742   53.1838  268.3688 C   0  0  0  0  0  0  0  0  0  0  0  0
   92.8962   51.4518  269.4841 C   0  0  0  0  0  0  0  0  0  0  0  0
   90.2751   48.1321  266.3186 N   0  0  0  0  0  0  0  0  0  0  0  0
   89.7173   47.3514  265.2910 C   0  0  0  0  0  0  0  0  0  0  0  0
   90.4223   47.1244  264.1010 C   0  0  0  0  0  0  0  0  0  0  0  0
   89.9202   46.4330  263.0469 N   0  0  0  0  0  0  0  0  0  0  0  0
   88.6631   45.9395  263.1640 C   0  0  0  0  0  0  0  0  0  0  0  0
   87.8875   46.0982  264.3114 C   0  0  0  0  0  0  0  0  0  0  0  0
   88.4234   46.8064  265.3954 C   0  0  0  0  0  0  0  0  0  0  0  0
   87.4813   46.8916  266.9240 S   0  0  0  0  0  0  0  0  0  0  0  0
   86.1376   46.3636  266.6658 O   0  0  0  0  0  0  0  0  0  0  0  0
   87.6482   48.2377  267.4791 O   0  0  0  0  0  0  0  0  0  0  0  0
   88.3853   45.6716  268.0379 C   0  0  0  0  0  0  0  0  0  0  0  0
   93.2144   52.6711  270.0767 C   0  0  0  0  0  0  0  0  0  0  0  0
   94.1671   53.5709  269.5134 C   0  0  0  0  0  0  0  0  0  0  0  0
   94.1722   54.7295  270.3422 C   0  0  0  0  0  0  0  0  0  0  0  0
   93.2836   54.5053  271.3550 C   0  0  0  0  0  0  0  0  0  0  0  0
   92.7499   53.2450  271.2433 N   0  0  0  0  0  0  0  0  0  0  0  0
   91.7998   52.6492  272.1755 C   0  0  0  0  0  0  0  0  0  0  0  0
   91.8677   53.3117  273.3272 F   0  0  0  0  0  0  0  0  0  0  0  0
   90.5872   52.7234  271.6286 F   0  0  0  0  0  0  0  0  0  0  0  0
   92.2936   46.4296  265.9695 H   0  0  0  0  0  0  0  0  0  0  0  0
   91.3559   49.6110  268.1981 H   0  0  0  0  0  0  0  0  0  0  0  0
   91.6913   50.3360  266.5892 H   0  0  0  0  0  0  0  0  0  0  0  0
   97.4784   48.0992  268.0255 H   0  0  0  0  0  0  0  0  0  0  0  0
   96.7886   45.9553  267.0793 H   0  0  0  0  0  0  0  0  0  0  0  0
   95.1093   51.6406  266.9060 H   0  0  0  0  0  0  0  0  0  0  0  0
   95.6334   53.8239  267.9442 H   0  0  0  0  0  0  0  0  0  0  0  0
   92.1407   50.8030  269.9020 H   0  0  0  0  0  0  0  0  0  0  0  0
   91.4228   47.5227  264.0183 H   0  0  0  0  0  0  0  0  0  0  0  0
   88.2428   45.3981  262.3294 H   0  0  0  0  0  0  0  0  0  0  0  0
   86.8919   45.6830  264.3640 H   0  0  0  0  0  0  0  0  0  0  0  0
   87.8918   45.6361  269.0203 H   0  0  0  0  0  0  0  0  0  0  0  0
   88.3632   44.6716  267.5803 H   0  0  0  0  0  0  0  0  0  0  0  0
   89.4294   45.9943  268.1636 H   0  0  0  0  0  0  0  0  0  0  0  0
   94.7674   55.6189  270.1969 H   0  0  0  0  0  0  0  0  0  0  0  0
   93.0368   55.2154  272.1304 H   0  0  0  0  0  0  0  0  0  0  0  0
   92.0808   51.5967  272.3282 H   0  0  0  0  0  0  0  0  0  0  0  0
  1  4  1  0  0  0  0
  1  6  2  0  0  0  0
  1 11  1  0  0  0  0
  2  3  1  0  0  0  0
  2  5  2  0  0  0  0
  3  4  1  0  0  0  0
  3 15  2  3  0  0  0
  5  6  1  0  0  0  0
  5 10  1  0  0  0  0
  6  7  1  0  0  0  0
  7  8  2  0  0  0  0
  8  9  1  0  0  0  0
  9 10  2  0  0  0  0
 11 12  2  0  0  0  0
 11 14  1  0  0  0  0
 12 13  1  0  0  0  0
 13 27  2  0  0  0  0
 14 26  2  0  0  0  0
 15 16  1  0  0  0  0
 16 17  2  0  0  0  0
 16 21  1  0  0  0  0
 17 18  1  0  0  0  0
 18 19  2  0  0  0  0
 19 20  1  0  0  0  0
 20 21  2  0  0  0  0
 21 22  1  0  0  0  0
 22 23  2  0  0  0  0
 22 24  2  0  0  0  0
 22 25  1  0  0  0  0
 26 27  1  0  0  0  0
 26 30  1  0  0  0  0
 27 28  1  0  0  0  0
 28 29  2  0  0  0  0
 29 30  1  0  0  0  0
 30 31  1  0  0  0  0
 31 32  1  0  0  0  0
 31 33  1  0  0  0  0
  2 34  1  0  0  0  0
  4 35  1  0  0  0  0
  4 36  1  0  0  0  0
  8 37  1  0  0  0  0
  9 38  1  0  0  0  0
 12 39  1  0  0  0  0
 13 40  1  0  0  0  0
 14 41  1  0  0  0  0
 17 42  1  0  0  0  0
 19 43  1  0  0  0  0
 20 44  1  0  0  0  0
 25 45  1  0  0  0  0
 25 46  1  0  0  0  0
 25 47  1  0  0  0  0
 28 48  1  0  0  0  0
 29 49  1  0  0  0  0
 31 50  1  0  0  0  0
M  END
> <ID>
57

> <IC50[uM]>
0.021

$$$$
57
  -OEChem-05192314313D
 Structure written by MMmdl.
 50 54  0     1  0  0  0  0  0999 V2000
   93.2863   49.8046  267.6850 C   0  0  0  0  0  0  0  0  0  0  0  0
   92.5683   47.3483  266.4663 C   0  0  0  0  0  0  0  0  0  0  0  0
   91.6135   48.3386  266.6756 C   0  0  0  0  0  0  0  0  0  0  0  0
   91.9715   49.5355  267.2896 C   0  0  0  0  0  0  0  0  0  0  0  0
   93.8941   47.5445  266.9029 C   0  0  0  0  0  0  0  0  0  0  0  0
   94.2723   48.7844  267.5084 C   0  0  0  0  0  0  0  0  0  0  0  0
   95.5616   48.9663  267.9305 N   0  0  0  0  0  0  0  0  0  0  0  0
   96.4473   47.9576  267.7370 C   0  0  0  0  0  0  0  0  0  0  0  0
   96.0606   46.7470  267.1769 C   0  0  0  0  0  0  0  0  0  0  0  0
   94.7945   46.5353  266.7507 N   0  0  0  0  0  0  0  0  0  0  0  0
   93.5945   51.1040  268.3281 C   0  0  0  0  0  0  0  0  0  0  0  0
   94.5736   51.9510  267.7909 C   0  0  0  0  0  0  0  0  0  0  0  0
   94.8742   53.1838  268.3688 C   0  0  0  0  0  0  0  0  0  0  0  0
   92.8962   51.4518  269.4841 C   0  0  0  0  0  0  0  0  0  0  0  0
   90.2751   48.1321  266.3186 N   0  0  0  0  0  0  0  0  0  0  0  0
   89.7173   47.3514  265.2910 C   0  0  0  0  0  0  0  0  0  0  0  0
   90.4223   47.1244  264.1010 C   0  0  0  0  0  0  0  0  0  0  0  0
   89.9202   46.4330  263.0469 N   0  0  0  0  0  0  0  0  0  0  0  0
   88.6631   45.9395  263.1640 C   0  0  0  0  0  0  0  0  0  0  0  0
   87.8875   46.0982  264.3114 C   0  0  0  0  0  0  0  0  0  0  0  0
   88.4234   46.8064  265.3954 C   0  0  3  0  0  0  0  0  0  0  0  0
   87.4813   46.8916  266.9240 S   0  0  0  0  0  0  0  0  0  0  0  0
   86.1376   46.3636  266.6658 O   0  0  0  0  0  0  0  0  0  0  0  0
   87.6482   48.2377  267.4791 O   0  0  0  0  0  0  0  0  0  0  0  0
   88.3853   45.6716  268.0379 C   0  0  0  0  0  0  0  0  0  0  0  0
   93.2144   52.6711  270.0767 C   0  0  0  0  0  0  0  0  0  0  0  0
   94.1671   53.5709  269.5134 C   0  0  0  0  0  0  0  0  0  0  0  0
   94.1722   54.7295  270.3422 C   0  0  0  0  0  0  0  0  0  0  0  0
   93.2836   54.5053  271.3550 C   0  0  0  0  0  0  0  0  0  0  0  0
   92.7499   53.2450  271.2433 N   0  0  0  0  0  0  0  0  0  0  0  0
   91.7998   52.6492  272.1755 C   0  0  0  0  0  0  0  0  0  0  0  0
   91.8677   53.3117  273.3272 F   0  0  0  0  0  0  0  0  0  0  0  0
   90.5872   52.7234  271.6286 F   0  0  0  0  0  0  0  0  0  0  0  0
   92.2936   46.4296  265.9695 H   0  0  0  0  0  0  0  0  0  0  0  0
   91.2098   50.2804  267.4665 H   0  0  0  0  0  0  0  0  0  0  0  0
   97.4784   48.0992  268.0255 H   0  0  0  0  0  0  0  0  0  0  0  0
   96.7886   45.9553  267.0793 H   0  0  0  0  0  0  0  0  0  0  0  0
   95.1093   51.6406  266.9060 H   0  0  0  0  0  0  0  0  0  0  0  0
   95.6334   53.8239  267.9442 H   0  0  0  0  0  0  0  0  0  0  0  0
   92.1407   50.8030  269.9020 H   0  0  0  0  0  0  0  0  0  0  0  0
   91.4228   47.5227  264.0183 H   0  0  0  0  0  0  0  0  0  0  0  0
   88.2428   45.3981  262.3294 H   0  0  0  0  0  0  0  0  0  0  0  0
   86.8919   45.6830  264.3640 H   0  0  0  0  0  0  0  0  0  0  0  0
   87.9712   47.7442  265.0403 H   0  0  0  0  0  0  0  0  0  0  0  0
   87.8918   45.6361  269.0203 H   0  0  0  0  0  0  0  0  0  0  0  0
   88.3632   44.6716  267.5803 H   0  0  0  0  0  0  0  0  0  0  0  0
   89.4294   45.9943  268.1636 H   0  0  0  0  0  0  0  0  0  0  0  0
   94.7674   55.6189  270.1969 H   0  0  0  0  0  0  0  0  0  0  0  0
   93.0368   55.2154  272.1304 H   0  0  0  0  0  0  0  0  0  0  0  0
   92.0808   51.5967  272.3282 H   0  0  0  0  0  0  0  0  0  0  0  0
  1  4  2  0  0  0  0
  1  6  1  0  0  0  0
  1 11  1  0  0  0  0
  2  3  2  0  0  0  0
  2  5  1  0  0  0  0
  3  4  1  0  0  0  0
  3 15  1  0  0  0  0
  5  6  2  0  0  0  0
  5 10  1  0  0  0  0
  6  7  1  0  0  0  0
  7  8  2  0  0  0  0
  8  9  1  0  0  0  0
  9 10  2  0  0  0  0
 11 12  2  0  0  0  0
 11 14  1  0  0  0  0
 12 13  1  0  0  0  0
 13 27  2  0  0  0  0
 14 26  2  0  0  0  0
 15 16  2  0  0  0  0
 16 17  1  0  0  0  0
 16 21  1  0  0  0  0
 17 18  2  0  0  0  0
 18 19  1  0  0  0  0
 19 20  2  0  0  0  0
 20 21  1  0  0  0  0
 21 22  1  0  0  0  0
 22 23  2  0  0  0  0
 22 24  2  0  0  0  0
 22 25  1  0  0  0  0
 26 27  1  0  0  0  0
 26 30  1  0  0  0  0
 27 28  1  0  0  0  0
 28 29  2  0  0  0  0
 29 30  1  0  0  0  0
 30 31  1  0  0  0  0
 31 32  1  0  0  0  0
 31 33  1  0  0  0  0
  2 34  1  0  0  0  0
  4 35  1  0  0  0  0
  8 36  1  0  0  0  0
  9 37  1  0  0  0  0
 12 38  1  0  0  0  0
 13 39  1  0  0  0  0
 14 40  1  0  0  0  0
 17 41  1  0  0  0  0
 19 42  1  0  0  0  0
 20 43  1  0  0  0  0
 21 44  1  0  0  0  0
 25 45  1  0  0  0  0
 25 46  1  0  0  0  0
 25 47  1  0  0  0  0
 28 48  1  0  0  0  0
 29 49  1  0  0  0  0
 31 50  1  0  0  0  0
M  END
> <ID>
57

> <IC50[uM]>
0.021

$$$$
57
  -OEChem-05192314313D
 Structure written by MMmdl.
 50 54  0     0  0  0  0  0  0999 V2000
   93.2863   49.8046  267.6850 C   0  0  0  0  0  0  0  0  0  0  0  0
   92.5683   47.3483  266.4663 C   0  0  0  0  0  0  0  0  0  0  0  0
   91.6135   48.3386  266.6756 C   0  0  0  0  0  0  0  0  0  0  0  0
   91.9715   49.5355  267.2896 C   0  0  0  0  0  0  0  0  0  0  0  0
   93.8941   47.5445  266.9029 C   0  0  0  0  0  0  0  0  0  0  0  0
   94.2723   48.7844  267.5084 C   0  0  0  0  0  0  0  0  0  0  0  0
   95.5616   48.9663  267.9305 N   0  0  0  0  0  0  0  0  0  0  0  0
   96.4473   47.9576  267.7370 C   0  0  0  0  0  0  0  0  0  0  0  0
   96.0606   46.7470  267.1769 C   0  0  0  0  0  0  0  0  0  0  0  0
   94.7945   46.5353  266.7507 N   0  0  0  0  0  0  0  0  0  0  0  0
   93.5945   51.1040  268.3281 C   0  0  0  0  0  0  0  0  0  0  0  0
   94.5736   51.9510  267.7909 C   0  0  0  0  0  0  0  0  0  0  0  0
   94.8742   53.1838  268.3688 C   0  0  0  0  0  0  0  0  0  0  0  0
   92.8962   51.4518  269.4841 C   0  0  0  0  0  0  0  0  0  0  0  0
   90.2751   48.1321  266.3186 N   0  0  0  0  0  0  0  0  0  0  0  0
   89.7173   47.3514  265.2910 C   0  0  0  0  0  0  0  0  0  0  0  0
   90.4223   47.1244  264.1010 C   0  0  0  0  0  0  0  0  0  0  0  0
   89.9202   46.4330  263.0469 N   0  0  0  0  0  0  0  0  0  0  0  0
   88.6631   45.9395  263.1640 C   0  0  0  0  0  0  0  0  0  0  0  0
   87.8875   46.0982  264.3114 C   0  0  0  0  0  0  0  0  0  0  0  0
   88.4234   46.8064  265.3954 C   0  0  0  0  0  0  0  0  0  0  0  0
   87.4813   46.8916  266.9240 S   0  0  0  0  0  0  0  0  0  0  0  0
   86.1376   46.3636  266.6658 O   0  0  0  0  0  0  0  0  0  0  0  0
   87.6482   48.2377  267.4791 O   0  0  0  0  0  0  0  0  0  0  0  0
   88.3853   45.6716  268.0379 C   0  0  0  0  0  0  0  0  0  0  0  0
   93.2144   52.6711  270.0767 C   0  0  0  0  0  0  0  0  0  0  0  0
   94.1671   53.5709  269.5134 C   0  0  0  0  0  0  0  0  0  0  0  0
   94.1722   54.7295  270.3422 C   0  0  0  0  0  0  0  0  0  0  0  0
   93.2836   54.5053  271.3550 C   0  0  0  0  0  0  0  0  0  0  0  0
   92.7499   53.2450  271.2433 N   0  0  0  0  0  0  0  0  0  0  0  0
   91.7998   52.6492  272.1755 C   0  0  0  0  0  0  0  0  0  0  0  0
   91.8677   53.3117  273.3272 F   0  0  0  0  0  0  0  0  0  0  0  0
   90.5872   52.7234  271.6286 F   0  0  0  0  0  0  0  0  0  0  0  0
   92.2936   46.4296  265.9695 H   0  0  0  0  0  0  0  0  0  0  0  0
   91.2098   50.2804  267.4665 H   0  0  0  0  0  0  0  0  0  0  0  0
   97.4784   48.0992  268.0255 H   0  0  0  0  0  0  0  0  0  0  0  0
   96.7886   45.9553  267.0793 H   0  0  0  0  0  0  0  0  0  0  0  0
   95.1093   51.6406  266.9060 H   0  0  0  0  0  0  0  0  0  0  0  0
   95.6334   53.8239  267.9442 H   0  0  0  0  0  0  0  0  0  0  0  0
   92.1407   50.8030  269.9020 H   0  0  0  0  0  0  0  0  0  0  0  0
   91.4228   47.5227  264.0183 H   0  0  0  0  0  0  0  0  0  0  0  0
   88.0843   46.3877  262.3430 H   0  0  0  0  0  0  0  0  0  0  0  0
   88.7476   44.8546  263.0034 H   0  0  0  0  0  0  0  0  0  0  0  0
   86.8919   45.6830  264.3640 H   0  0  0  0  0  0  0  0  0  0  0  0
   87.8918   45.6361  269.0203 H   0  0  0  0  0  0  0  0  0  0  0  0
   88.3632   44.6716  267.5803 H   0  0  0  0  0  0  0  0  0  0  0  0
   89.4294   45.9943  268.1636 H   0  0  0  0  0  0  0  0  0  0  0  0
   94.7674   55.6189  270.1969 H   0  0  0  0  0  0  0  0  0  0  0  0
   93.0368   55.2154  272.1304 H   0  0  0  0  0  0  0  0  0  0  0  0
   92.0808   51.5967  272.3282 H   0  0  0  0  0  0  0  0  0  0  0  0
  1  4  2  0  0  0  0
  1  6  1  0  0  0  0
  1 11  1  0  0  0  0
  2  3  2  0  0  0  0
  2  5  1  0  0  0  0
  3  4  1  0  0  0  0
  3 15  1  0  0  0  0
  5  6  2  0  0  0  0
  5 10  1  0  0  0  0
  6  7  1  0  0  0  0
  7  8  2  0  0  0  0
  8  9  1  0  0  0  0
  9 10  2  0  0  0  0
 11 12  2  0  0  0  0
 11 14  1  0  0  0  0
 12 13  1  0  0  0  0
 13 27  2  0  0  0  0
 14 26  2  0  0  0  0
 15 16  2  0  0  0  0
 16 17  1  0  0  0  0
 16 21  1  0  0  0  0
 17 18  2  0  0  0  0
 18 19  1  0  0  0  0
 19 20  1  0  0  0  0
 20 21  2  0  0  0  0
 21 22  1  0  0  0  0
 22 23  2  0  0  0  0
 22 24  2  0  0  0  0
 22 25  1  0  0  0  0
 26 27  1  0  0  0  0
 26 30  1  0  0  0  0
 27 28  1  0  0  0  0
 28 29  2  0  0  0  0
 29 30  1  0  0  0  0
 30 31  1  0  0  0  0
 31 32  1  0  0  0  0
 31 33  1  0  0  0  0
  2 34  1  0  0  0  0
  4 35  1  0  0  0  0
  8 36  1  0  0  0  0
  9 37  1  0  0  0  0
 12 38  1  0  0  0  0
 13 39  1  0  0  0  0
 14 40  1  0  0  0  0
 17 41  1  0  0  0  0
 19 42  1  0  0  0  0
 19 43  1  0  0  0  0
 20 44  1  0  0  0  0
 25 45  1  0  0  0  0
 25 46  1  0  0  0  0
 25 47  1  0  0  0  0
 28 48  1  0  0  0  0
 29 49  1  0  0  0  0
 31 50  1  0  0  0  0
M  END
> <ID>
57

> <IC50[uM]>
0.021

$$$$
57
  -OEChem-05192314313D
 Structure written by MMmdl.
 50 54  0     0  0  0  0  0  0999 V2000
   93.2863   49.8046  267.6850 C   0  0  0  0  0  0  0  0  0  0  0  0
   92.5683   47.3483  266.4663 C   0  0  0  0  0  0  0  0  0  0  0  0
   91.6135   48.3386  266.6756 C   0  0  0  0  0  0  0  0  0  0  0  0
   91.9715   49.5355  267.2896 C   0  0  0  0  0  0  0  0  0  0  0  0
   93.8941   47.5445  266.9029 C   0  0  0  0  0  0  0  0  0  0  0  0
   94.2723   48.7844  267.5084 C   0  0  0  0  0  0  0  0  0  0  0  0
   95.5616   48.9663  267.9305 N   0  0  0  0  0  0  0  0  0  0  0  0
   96.4473   47.9576  267.7370 C   0  0  0  0  0  0  0  0  0  0  0  0
   96.0606   46.7470  267.1769 C   0  0  0  0  0  0  0  0  0  0  0  0
   94.7945   46.5353  266.7507 N   0  0  0  0  0  0  0  0  0  0  0  0
   93.5945   51.1040  268.3281 C   0  0  0  0  0  0  0  0  0  0  0  0
   94.5736   51.9510  267.7909 C   0  0  0  0  0  0  0  0  0  0  0  0
   94.8742   53.1838  268.3688 C   0  0  0  0  0  0  0  0  0  0  0  0
   92.8962   51.4518  269.4841 C   0  0  0  0  0  0  0  0  0  0  0  0
   90.2751   48.1321  266.3186 N   0  0  0  0  0  0  0  0  0  0  0  0
   89.7173   47.3514  265.2910 C   0  0  0  0  0  0  0  0  0  0  0  0
   90.4223   47.1244  264.1010 C   0  0  0  0  0  0  0  0  0  0  0  0
   89.9202   46.4330  263.0469 N   0  0  0  0  0  0  0  0  0  0  0  0
   88.6631   45.9395  263.1640 C   0  0  0  0  0  0  0  0  0  0  0  0
   87.8875   46.0982  264.3114 C   0  0  0  0  0  0  0  0  0  0  0  0
   88.4234   46.8064  265.3954 C   0  0  0  0  0  0  0  0  0  0  0  0
   87.4813   46.8916  266.9240 S   0  0  0  0  0  0  0  0  0  0  0  0
   86.1376   46.3636  266.6658 O   0  0  0  0  0  0  0  0  0  0  0  0
   87.6482   48.2377  267.4791 O   0  0  0  0  0  0  0  0  0  0  0  0
   88.3853   45.6716  268.0379 C   0  0  0  0  0  0  0  0  0  0  0  0
   93.2144   52.6711  270.0767 C   0  0  0  0  0  0  0  0  0  0  0  0
   94.1671   53.5709  269.5134 C   0  0  0  0  0  0  0  0  0  0  0  0
   94.1722   54.7295  270.3422 C   0  0  0  0  0  0  0  0  0  0  0  0
   93.2836   54.5053  271.3550 C   0  0  0  0  0  0  0  0  0  0  0  0
   92.7499   53.2450  271.2433 N   0  0  0  0  0  0  0  0  0  0  0  0
   91.7998   52.6492  272.1755 C   0  0  0  0  0  0  0  0  0  0  0  0
   91.8677   53.3117  273.3272 F   0  0  0  0  0  0  0  0  0  0  0  0
   90.5872   52.7234  271.6286 F   0  0  0  0  0  0  0  0  0  0  0  0
   92.2936   46.4296  265.9695 H   0  0  0  0  0  0  0  0  0  0  0  0
   91.2098   50.2804  267.4665 H   0  0  0  0  0  0  0  0  0  0  0  0
   97.4784   48.0992  268.0255 H   0  0  0  0  0  0  0  0  0  0  0  0
   96.7886   45.9553  267.0793 H   0  0  0  0  0  0  0  0  0  0  0  0
   95.1093   51.6406  266.9060 H   0  0  0  0  0  0  0  0  0  0  0  0
   95.6334   53.8239  267.9442 H   0  0  0  0  0  0  0  0  0  0  0  0
   92.1407   50.8030  269.9020 H   0  0  0  0  0  0  0  0  0  0  0  0
   90.6791   48.1202  263.7107 H   0  0  0  0  0  0  0  0  0  0  0  0
   91.3421   46.5970  264.3940 H   0  0  0  0  0  0  0  0  0  0  0  0
   88.2428   45.3981  262.3294 H   0  0  0  0  0  0  0  0  0  0  0  0
   86.8919   45.6830  264.3640 H   0  0  0  0  0  0  0  0  0  0  0  0
   87.8918   45.6361  269.0203 H   0  0  0  0  0  0  0  0  0  0  0  0
   88.3632   44.6716  267.5803 H   0  0  0  0  0  0  0  0  0  0  0  0
   89.4294   45.9943  268.1636 H   0  0  0  0  0  0  0  0  0  0  0  0
   94.7674   55.6189  270.1969 H   0  0  0  0  0  0  0  0  0  0  0  0
   93.0368   55.2154  272.1304 H   0  0  0  0  0  0  0  0  0  0  0  0
   92.0808   51.5967  272.3282 H   0  0  0  0  0  0  0  0  0  0  0  0
  1  4  2  0  0  0  0
  1  6  1  0  0  0  0
  1 11  1  0  0  0  0
  2  3  2  0  0  0  0
  2  5  1  0  0  0  0
  3  4  1  0  0  0  0
  3 15  1  0  0  0  0
  5  6  2  0  0  0  0
  5 10  1  0  0  0  0
  6  7  1  0  0  0  0
  7  8  2  0  0  0  0
  8  9  1  0  0  0  0
  9 10  2  0  0  0  0
 11 12  2  0  0  0  0
 11 14  1  0  0  0  0
 12 13  1  0  0  0  0
 13 27  2  0  0  0  0
 14 26  2  0  0  0  0
 15 16  2  0  0  0  0
 16 17  1  0  0  0  0
 16 21  1  0  0  0  0
 17 18  1  0  0  0  0
 18 19  2  0  0  0  0
 19 20  1  0  0  0  0
 20 21  2  0  0  0  0
 21 22  1  0  0  0  0
 22 23  2  0  0  0  0
 22 24  2  0  0  0  0
 22 25  1  0  0  0  0
 26 27  1  0  0  0  0
 26 30  1  0  0  0  0
 27 28  1  0  0  0  0
 28 29  2  0  0  0  0
 29 30  1  0  0  0  0
 30 31  1  0  0  0  0
 31 32  1  0  0  0  0
 31 33  1  0  0  0  0
  2 34  1  0  0  0  0
  4 35  1  0  0  0  0
  8 36  1  0  0  0  0
  9 37  1  0  0  0  0
 12 38  1  0  0  0  0
 13 39  1  0  0  0  0
 14 40  1  0  0  0  0
 17 41  1  0  0  0  0
 17 42  1  0  0  0  0
 19 43  1  0  0  0  0
 20 44  1  0  0  0  0
 25 45  1  0  0  0  0
 25 46  1  0  0  0  0
 25 47  1  0  0  0  0
 28 48  1  0  0  0  0
 29 49  1  0  0  0  0
 31 50  1  0  0  0  0
M  END
> <ID>
57

> <IC50[uM]>
0.021

$$$$
57
  -OEChem-05192314313D
 Structure written by MMmdl.
 50 54  0     1  0  0  0  0  0999 V2000
   93.2863   49.8046  267.6850 C   0  0  0  0  0  0  0  0  0  0  0  0
   92.5683   47.3483  266.4663 C   0  0  0  0  0  0  0  0  0  0  0  0
   91.6135   48.3386  266.6756 C   0  0  0  0  0  0  0  0  0  0  0  0
   91.9715   49.5355  267.2896 C   0  0  0  0  0  0  0  0  0  0  0  0
   93.8941   47.5445  266.9029 C   0  0  0  0  0  0  0  0  0  0  0  0
   94.2723   48.7844  267.5084 C   0  0  3  0  0  0  0  0  0  0  0  0
   95.5616   48.9663  267.9305 N   0  0  0  0  0  0  0  0  0  0  0  0
   96.4473   47.9576  267.7370 C   0  0  0  0  0  0  0  0  0  0  0  0
   96.0606   46.7470  267.1769 C   0  0  0  0  0  0  0  0  0  0  0  0
   94.7945   46.5353  266.7507 N   0  0  0  0  0  0  0  0  0  0  0  0
   93.5945   51.1040  268.3281 C   0  0  0  0  0  0  0  0  0  0  0  0
   94.5736   51.9510  267.7909 C   0  0  0  0  0  0  0  0  0  0  0  0
   94.8742   53.1838  268.3688 C   0  0  0  0  0  0  0  0  0  0  0  0
   92.8962   51.4518  269.4841 C   0  0  0  0  0  0  0  0  0  0  0  0
   90.2751   48.1321  266.3186 N   0  0  0  0  0  0  0  0  0  0  0  0
   89.7173   47.3514  265.2910 C   0  0  0  0  0  0  0  0  0  0  0  0
   90.4223   47.1244  264.1010 C   0  0  0  0  0  0  0  0  0  0  0  0
   89.9202   46.4330  263.0469 N   0  0  0  0  0  0  0  0  0  0  0  0
   88.6631   45.9395  263.1640 C   0  0  0  0  0  0  0  0  0  0  0  0
   87.8875   46.0982  264.3114 C   0  0  0  0  0  0  0  0  0  0  0  0
   88.4234   46.8064  265.3954 C   0  0  0  0  0  0  0  0  0  0  0  0
   87.4813   46.8916  266.9240 S   0  0  0  0  0  0  0  0  0  0  0  0
   86.1376   46.3636  266.6658 O   0  0  0  0  0  0  0  0  0  0  0  0
   87.6482   48.2377  267.4791 O   0  0  0  0  0  0  0  0  0  0  0  0
   88.3853   45.6716  268.0379 C   0  0  0  0  0  0  0  0  0  0  0  0
   93.2144   52.6711  270.0767 C   0  0  0  0  0  0  0  0  0  0  0  0
   94.1671   53.5709  269.5134 C   0  0  0  0  0  0  0  0  0  0  0  0
   94.1722   54.7295  270.3422 C   0  0  0  0  0  0  0  0  0  0  0  0
   93.2836   54.5053  271.3550 C   0  0  0  0  0  0  0  0  0  0  0  0
   92.7499   53.2450  271.2433 N   0  0  0  0  0  0  0  0  0  0  0  0
   91.7998   52.6492  272.1755 C   0  0  0  0  0  0  0  0  0  0  0  0
   91.8677   53.3117  273.3272 F   0  0  0  0  0  0  0  0  0  0  0  0
   90.5872   52.7234  271.6286 F   0  0  0  0  0  0  0  0  0  0  0  0
   92.2936   46.4296  265.9695 H   0  0  0  0  0  0  0  0  0  0  0  0
   91.2098   50.2804  267.4665 H   0  0  0  0  0  0  0  0  0  0  0  0
   94.5302   49.1954  266.5212 H   0  0  0  0  0  0  0  0  0  0  0  0
   97.4784   48.0992  268.0255 H   0  0  0  0  0  0  0  0  0  0  0  0
   96.7886   45.9553  267.0793 H   0  0  0  0  0  0  0  0  0  0  0  0
   95.1093   51.6406  266.9060 H   0  0  0  0  0  0  0  0  0  0  0  0
   95.6334   53.8239  267.9442 H   0  0  0  0  0  0  0  0  0  0  0  0
   92.1407   50.8030  269.9020 H   0  0  0  0  0  0  0  0  0  0  0  0
   91.4228   47.5227  264.0183 H   0  0  0  0  0  0  0  0  0  0  0  0
   88.2428   45.3981  262.3294 H   0  0  0  0  0  0  0  0  0  0  0  0
   86.8919   45.6830  264.3640 H   0  0  0  0  0  0  0  0  0  0  0  0
   87.8918   45.6361  269.0203 H   0  0  0  0  0  0  0  0  0  0  0  0
   88.3632   44.6716  267.5803 H   0  0  0  0  0  0  0  0  0  0  0  0
   89.4294   45.9943  268.1636 H   0  0  0  0  0  0  0  0  0  0  0  0
   94.7674   55.6189  270.1969 H   0  0  0  0  0  0  0  0  0  0  0  0
   93.0368   55.2154  272.1304 H   0  0  0  0  0  0  0  0  0  0  0  0
   92.0808   51.5967  272.3282 H   0  0  0  0  0  0  0  0  0  0  0  0
  1  4  2  0  0  0  0
  1  6  1  0  0  0  0
  1 11  1  0  0  0  0
  2  3  1  0  0  0  0
  2  5  2  0  0  0  0
  3  4  1  0  0  0  0
  3 15  2  3  0  0  0
  5  6  1  0  0  0  0
  5 10  1  0  0  0  0
  6  7  1  0  0  0  0
  7  8  2  0  0  0  0
  8  9  1  0  0  0  0
  9 10  2  0  0  0  0
 11 12  2  0  0  0  0
 11 14  1  0  0  0  0
 12 13  1  0  0  0  0
 13 27  2  0  0  0  0
 14 26  2  0  0  0  0
 15 16  1  0  0  0  0
 16 17  2  0  0  0  0
 16 21  1  0  0  0  0
 17 18  1  0  0  0  0
 18 19  2  0  0  0  0
 19 20  1  0  0  0  0
 20 21  2  0  0  0  0
 21 22  1  0  0  0  0
 22 23  2  0  0  0  0
 22 24  2  0  0  0  0
 22 25  1  0  0  0  0
 26 27  1  0  0  0  0
 26 30  1  0  0  0  0
 27 28  1  0  0  0  0
 28 29  2  0  0  0  0
 29 30  1  0  0  0  0
 30 31  1  0  0  0  0
 31 32  1  0  0  0  0
 31 33  1  0  0  0  0
  2 34  1  0  0  0  0
  4 35  1  0  0  0  0
  6 36  1  0  0  0  0
  8 37  1  0  0  0  0
  9 38  1  0  0  0  0
 12 39  1  0  0  0  0
 13 40  1  0  0  0  0
 14 41  1  0  0  0  0
 17 42  1  0  0  0  0
 19 43  1  0  0  0  0
 20 44  1  0  0  0  0
 25 45  1  0  0  0  0
 25 46  1  0  0  0  0
 25 47  1  0  0  0  0
 28 48  1  0  0  0  0
 29 49  1  0  0  0  0
 31 50  1  0  0  0  0
M  END
> <ID>
57

> <IC50[uM]>
0.021

$$$$
57
  -OEChem-05192314313D
 Structure written by MMmdl.
 50 54  0     0  0  0  0  0  0999 V2000
   93.2863   49.8046  267.6850 C   0  0  0  0  0  0  0  0  0  0  0  0
   92.5683   47.3483  266.4663 C   0  0  0  0  0  0  0  0  0  0  0  0
   91.6135   48.3386  266.6756 C   0  0  0  0  0  0  0  0  0  0  0  0
   91.9715   49.5355  267.2896 C   0  0  0  0  0  0  0  0  0  0  0  0
   93.8941   47.5445  266.9029 C   0  0  0  0  0  0  0  0  0  0  0  0
   94.2723   48.7844  267.5084 C   0  0  0  0  0  0  0  0  0  0  0  0
   95.5616   48.9663  267.9305 N   0  0  0  0  0  0  0  0  0  0  0  0
   96.4473   47.9576  267.7370 C   0  0  0  0  0  0  0  0  0  0  0  0
   96.0606   46.7470  267.1769 C   0  0  0  0  0  0  0  0  0  0  0  0
   94.7945   46.5353  266.7507 N   0  0  0  0  0  0  0  0  0  0  0  0
   93.5945   51.1040  268.3281 C   0  0  0  0  0  0  0  0  0  0  0  0
   94.5736   51.9510  267.7909 C   0  0  0  0  0  0  0  0  0  0  0  0
   94.8742   53.1838  268.3688 C   0  0  0  0  0  0  0  0  0  0  0  0
   92.8962   51.4518  269.4841 C   0  0  0  0  0  0  0  0  0  0  0  0
   90.2751   48.1321  266.3186 N   0  0  0  0  0  0  0  0  0  0  0  0
   89.7173   47.3514  265.2910 C   0  0  0  0  0  0  0  0  0  0  0  0
   90.4223   47.1244  264.1010 C   0  0  0  0  0  0  0  0  0  0  0  0
   89.9202   46.4330  263.0469 N   0  0  0  0  0  0  0  0  0  0  0  0
   88.6631   45.9395  263.1640 C   0  0  0  0  0  0  0  0  0  0  0  0
   87.8875   46.0982  264.3114 C   0  0  0  0  0  0  0  0  0  0  0  0
   88.4234   46.8064  265.3954 C   0  0  0  0  0  0  0  0  0  0  0  0
   87.4813   46.8916  266.9240 S   0  0  0  0  0  0  0  0  0  0  0  0
   86.1376   46.3636  266.6658 O   0  0  0  0  0  0  0  0  0  0  0  0
   87.6482   48.2377  267.4791 O   0  0  0  0  0  0  0  0  0  0  0  0
   88.3853   45.6716  268.0379 C   0  0  0  0  0  0  0  0  0  0  0  0
   93.2144   52.6711  270.0767 C   0  0  0  0  0  0  0  0  0  0  0  0
   94.1671   53.5709  269.5134 C   0  0  0  0  0  0  0  0  0  0  0  0
   94.1722   54.7295  270.3422 C   0  0  0  0  0  0  0  0  0  0  0  0
   93.2836   54.5053  271.3550 C   0  0  0  0  0  0  0  0  0  0  0  0
   92.7499   53.2450  271.2433 N   0  0  0  0  0  0  0  0  0  0  0  0
   91.7998   52.6492  272.1755 C   0  0  0  0  0  0  0  0  0  0  0  0
   91.8677   53.3117  273.3272 F   0  0  0  0  0  0  0  0  0  0  0  0
   90.5872   52.7234  271.6286 F   0  0  0  0  0  0  0  0  0  0  0  0
   92.2936   46.4296  265.9695 H   0  0  0  0  0  0  0  0  0  0  0  0
   91.2098   50.2804  267.4665 H   0  0  0  0  0  0  0  0  0  0  0  0
   97.2388   48.3605  267.0880 H   0  0  0  0  0  0  0  0  0  0  0  0
   96.8685   47.7212  268.7253 H   0  0  0  0  0  0  0  0  0  0  0  0
   96.7886   45.9553  267.0793 H   0  0  0  0  0  0  0  0  0  0  0  0
   95.1093   51.6406  266.9060 H   0  0  0  0  0  0  0  0  0  0  0  0
   95.6334   53.8239  267.9442 H   0  0  0  0  0  0  0  0  0  0  0  0
   92.1407   50.8030  269.9020 H   0  0  0  0  0  0  0  0  0  0  0  0
   91.4228   47.5227  264.0183 H   0  0  0  0  0  0  0  0  0  0  0  0
   88.2428   45.3981  262.3294 H   0  0  0  0  0  0  0  0  0  0  0  0
   86.8919   45.6830  264.3640 H   0  0  0  0  0  0  0  0  0  0  0  0
   87.8918   45.6361  269.0203 H   0  0  0  0  0  0  0  0  0  0  0  0
   88.3632   44.6716  267.5803 H   0  0  0  0  0  0  0  0  0  0  0  0
   89.4294   45.9943  268.1636 H   0  0  0  0  0  0  0  0  0  0  0  0
   94.7674   55.6189  270.1969 H   0  0  0  0  0  0  0  0  0  0  0  0
   93.0368   55.2154  272.1304 H   0  0  0  0  0  0  0  0  0  0  0  0
   92.0808   51.5967  272.3282 H   0  0  0  0  0  0  0  0  0  0  0  0
  1  4  2  0  0  0  0
  1  6  1  0  0  0  0
  1 11  1  0  0  0  0
  2  3  1  0  0  0  0
  2  5  2  0  0  0  0
  3  4  1  0  0  0  0
  3 15  2  3  0  0  0
  5  6  1  0  0  0  0
  5 10  1  0  0  0  0
  6  7  2  0  0  0  0
  7  8  1  0  0  0  0
  8  9  1  0  0  0  0
  9 10  2  0  0  0  0
 11 12  2  0  0  0  0
 11 14  1  0  0  0  0
 12 13  1  0  0  0  0
 13 27  2  0  0  0  0
 14 26  2  0  0  0  0
 15 16  1  0  0  0  0
 16 17  2  0  0  0  0
 16 21  1  0  0  0  0
 17 18  1  0  0  0  0
 18 19  2  0  0  0  0
 19 20  1  0  0  0  0
 20 21  2  0  0  0  0
 21 22  1  0  0  0  0
 22 23  2  0  0  0  0
 22 24  2  0  0  0  0
 22 25  1  0  0  0  0
 26 27  1  0  0  0  0
 26 30  1  0  0  0  0
 27 28  1  0  0  0  0
 28 29  2  0  0  0  0
 29 30  1  0  0  0  0
 30 31  1  0  0  0  0
 31 32  1  0  0  0  0
 31 33  1  0  0  0  0
  2 34  1  0  0  0  0
  4 35  1  0  0  0  0
  8 36  1  0  0  0  0
  8 37  1  0  0  0  0
  9 38  1  0  0  0  0
 12 39  1  0  0  0  0
 13 40  1  0  0  0  0
 14 41  1  0  0  0  0
 17 42  1  0  0  0  0
 19 43  1  0  0  0  0
 20 44  1  0  0  0  0
 25 45  1  0  0  0  0
 25 46  1  0  0  0  0
 25 47  1  0  0  0  0
 28 48  1  0  0  0  0
 29 49  1  0  0  0  0
 31 50  1  0  0  0  0
M  END
> <ID>
57

> <IC50[uM]>
0.021

$$$$
