55
  -OEChem-05192314313D
 Structure written by MMmdl.
 50 54  0     0  0  0  0  0  0999 V2000
   91.6118   48.3366  266.6739 C   0  0  0  0  0  0  0  0  0  0  0  0
   91.9698   49.5336  267.2864 C   0  0  0  0  0  0  0  0  0  0  0  0
   93.2850   49.8006  267.6832 C   0  0  0  0  0  0  0  0  0  0  0  0
   92.5678   47.3462  266.4685 C   0  0  0  0  0  0  0  0  0  0  0  0
   93.8944   47.5432  266.9034 C   0  0  0  0  0  0  0  0  0  0  0  0
   94.2719   48.7828  267.5077 C   0  0  0  0  0  0  0  0  0  0  0  0
   95.5609   48.9661  267.9314 N   0  0  0  0  0  0  0  0  0  0  0  0
   96.4476   47.9576  267.7393 C   0  0  0  0  0  0  0  0  0  0  0  0
   96.0612   46.7472  267.1782 C   0  0  0  0  0  0  0  0  0  0  0  0
   94.7955   46.5340  266.7522 N   0  0  0  0  0  0  0  0  0  0  0  0
   90.2745   48.1296  266.3175 N   0  0  0  0  0  0  0  0  0  0  0  0
   93.5938   51.0998  268.3264 C   0  0  0  0  0  0  0  0  0  0  0  0
   94.5697   51.9459  267.7912 C   0  0  0  0  0  0  0  0  0  0  0  0
   94.8659   53.1774  268.3682 C   0  0  0  0  0  0  0  0  0  0  0  0
   92.8971   51.4508  269.4842 C   0  0  0  0  0  0  0  0  0  0  0  0
   93.2083   52.6701  270.0801 C   0  0  0  0  0  0  0  0  0  0  0  0
   94.1610   53.5698  269.5192 C   0  0  0  0  0  0  0  0  0  0  0  0
   94.1614   54.7332  270.3565 C   0  0  0  0  0  0  0  0  0  0  0  0
   93.2770   54.4957  271.3795 C   0  0  0  0  0  0  0  0  0  0  0  0
   92.7328   53.2443  271.2449 N   0  0  0  0  0  0  0  0  0  0  0  0
   91.8103   52.6326  272.1899 C   0  0  0  0  0  0  0  0  0  0  0  0
   89.7167   47.3494  265.2904 C   0  0  0  0  0  0  0  0  0  0  0  0
   90.4217   47.1254  264.0999 C   0  0  0  0  0  0  0  0  0  0  0  0
   89.9191   46.4337  263.0465 N   0  0  0  0  0  0  0  0  0  0  0  0
   88.6626   45.9393  263.1648 C   0  0  0  0  0  0  0  0  0  0  0  0
   87.8878   46.0972  264.3127 C   0  0  0  0  0  0  0  0  0  0  0  0
   88.4240   46.8050  265.3972 C   0  0  0  0  0  0  0  0  0  0  0  0
   87.4806   46.8913  266.9254 S   0  0  0  0  0  0  0  0  0  0  0  0
   86.1391   46.3662  266.6675 O   0  0  0  0  0  0  0  0  0  0  0  0
   87.6492   48.2412  267.4790 O   0  0  0  0  0  0  0  0  0  0  0  0
   88.3838   45.6765  268.0468 C   0  0  0  0  0  0  0  0  0  0  0  0
   95.8038   53.9727  267.8010 F   0  0  0  0  0  0  0  0  0  0  0  0
   91.2089   50.2799  267.4611 H   0  0  0  0  0  0  0  0  0  0  0  0
   92.2931   46.4255  265.9753 H   0  0  0  0  0  0  0  0  0  0  0  0
   97.4782   48.0992  268.0294 H   0  0  0  0  0  0  0  0  0  0  0  0
   96.7900   45.9563  267.0796 H   0  0  0  0  0  0  0  0  0  0  0  0
   89.6090   48.6147  266.8847 H   0  0  0  0  0  0  0  0  0  0  0  0
   95.1075   51.6360  266.9074 H   0  0  0  0  0  0  0  0  0  0  0  0
   92.1437   50.7999  269.9026 H   0  0  0  0  0  0  0  0  0  0  0  0
   94.7474   55.6285  270.2102 H   0  0  0  0  0  0  0  0  0  0  0  0
   93.0445   55.1912  272.1724 H   0  0  0  0  0  0  0  0  0  0  0  0
   91.6165   53.3304  273.0179 H   0  0  0  0  0  0  0  0  0  0  0  0
   90.8646   52.3980  271.6794 H   0  0  0  0  0  0  0  0  0  0  0  0
   92.2523   51.7067  272.5866 H   0  0  0  0  0  0  0  0  0  0  0  0
   91.4212   47.5259  264.0164 H   0  0  0  0  0  0  0  0  0  0  0  0
   88.2420   45.3976  262.3305 H   0  0  0  0  0  0  0  0  0  0  0  0
   86.8923   45.6817  264.3655 H   0  0  0  0  0  0  0  0  0  0  0  0
   87.8877   45.6441  269.0281 H   0  0  0  0  0  0  0  0  0  0  0  0
   88.3644   44.6747  267.5930 H   0  0  0  0  0  0  0  0  0  0  0  0
   89.4270   46.0012  268.1741 H   0  0  0  0  0  0  0  0  0  0  0  0
  1  2  2  0  0  0  0
  1  4  1  0  0  0  0
  1 11  1  0  0  0  0
  2  3  1  0  0  0  0
  3  6  2  0  0  0  0
  3 12  1  0  0  0  0
  4  5  2  0  0  0  0
  5  6  1  0  0  0  0
  5 10  1  0  0  0  0
  6  7  1  0  0  0  0
  7  8  2  0  0  0  0
  8  9  1  0  0  0  0
  9 10  2  0  0  0  0
 11 22  1  0  0  0  0
 12 13  2  0  0  0  0
 12 15  1  0  0  0  0
 13 14  1  0  0  0  0
 14 17  2  0  0  0  0
 14 32  1  0  0  0  0
 15 16  2  0  0  0  0
 16 17  1  0  0  0  0
 16 20  1  0  0  0  0
 17 18  1  0  0  0  0
 18 19  2  0  0  0  0
 19 20  1  0  0  0  0
 20 21  1  0  0  0  0
 22 23  2  0  0  0  0
 22 27  1  0  0  0  0
 23 24  1  0  0  0  0
 24 25  2  0  0  0  0
 25 26  1  0  0  0  0
 26 27  2  0  0  0  0
 27 28  1  0  0  0  0
 28 29  2  0  0  0  0
 28 30  2  0  0  0  0
 28 31  1  0  0  0  0
  2 33  1  0  0  0  0
  4 34  1  0  0  0  0
  8 35  1  0  0  0  0
  9 36  1  0  0  0  0
 11 37  1  0  0  0  0
 13 38  1  0  0  0  0
 15 39  1  0  0  0  0
 18 40  1  0  0  0  0
 19 41  1  0  0  0  0
 21 42  1  0  0  0  0
 21 43  1  0  0  0  0
 21 44  1  0  0  0  0
 23 45  1  0  0  0  0
 25 46  1  0  0  0  0
 26 47  1  0  0  0  0
 31 48  1  0  0  0  0
 31 49  1  0  0  0  0
 31 50  1  0  0  0  0
M  END
> <ID>
55

> <IC50[uM]>
0.016

$$$$
55
  -OEChem-05192314313D
 Structure written by MMmdl.
 50 54  0     0  0  0  0  0  0999 V2000
   91.6118   48.3366  266.6739 C   0  0  0  0  0  0  0  0  0  0  0  0
   91.9698   49.5336  267.2864 C   0  0  0  0  0  0  0  0  0  0  0  0
   93.2850   49.8006  267.6832 C   0  0  0  0  0  0  0  0  0  0  0  0
   92.5678   47.3462  266.4685 C   0  0  0  0  0  0  0  0  0  0  0  0
   93.8944   47.5432  266.9034 C   0  0  0  0  0  0  0  0  0  0  0  0
   94.2719   48.7828  267.5077 C   0  0  0  0  0  0  0  0  0  0  0  0
   95.5609   48.9661  267.9314 N   0  0  0  0  0  0  0  0  0  0  0  0
   96.4476   47.9576  267.7393 C   0  0  0  0  0  0  0  0  0  0  0  0
   96.0612   46.7472  267.1782 C   0  0  0  0  0  0  0  0  0  0  0  0
   94.7955   46.5340  266.7522 N   0  0  0  0  0  0  0  0  0  0  0  0
   90.2745   48.1296  266.3175 N   0  0  0  0  0  0  0  0  0  0  0  0
   93.5938   51.0998  268.3264 C   0  0  0  0  0  0  0  0  0  0  0  0
   94.5697   51.9459  267.7912 C   0  0  0  0  0  0  0  0  0  0  0  0
   94.8659   53.1774  268.3682 C   0  0  0  0  0  0  0  0  0  0  0  0
   92.8971   51.4508  269.4842 C   0  0  0  0  0  0  0  0  0  0  0  0
   93.2083   52.6701  270.0801 C   0  0  0  0  0  0  0  0  0  0  0  0
   94.1610   53.5698  269.5192 C   0  0  0  0  0  0  0  0  0  0  0  0
   94.1614   54.7332  270.3565 C   0  0  0  0  0  0  0  0  0  0  0  0
   93.2770   54.4957  271.3795 C   0  0  0  0  0  0  0  0  0  0  0  0
   92.7328   53.2443  271.2449 N   0  0  0  0  0  0  0  0  0  0  0  0
   91.8103   52.6326  272.1899 C   0  0  0  0  0  0  0  0  0  0  0  0
   89.7167   47.3494  265.2904 C   0  0  0  0  0  0  0  0  0  0  0  0
   90.4217   47.1254  264.0999 C   0  0  0  0  0  0  0  0  0  0  0  0
   89.9191   46.4337  263.0465 N   0  0  0  0  0  0  0  0  0  0  0  0
   88.6626   45.9393  263.1648 C   0  0  0  0  0  0  0  0  0  0  0  0
   87.8878   46.0972  264.3127 C   0  0  0  0  0  0  0  0  0  0  0  0
   88.4240   46.8050  265.3972 C   0  0  0  0  0  0  0  0  0  0  0  0
   87.4806   46.8913  266.9254 S   0  0  0  0  0  0  0  0  0  0  0  0
   86.1391   46.3662  266.6675 O   0  0  0  0  0  0  0  0  0  0  0  0
   87.6492   48.2412  267.4790 O   0  0  0  0  0  0  0  0  0  0  0  0
   88.3838   45.6765  268.0468 C   0  0  0  0  0  0  0  0  0  0  0  0
   95.8038   53.9727  267.8010 F   0  0  0  0  0  0  0  0  0  0  0  0
   91.2089   50.2799  267.4611 H   0  0  0  0  0  0  0  0  0  0  0  0
   92.2931   46.4255  265.9753 H   0  0  0  0  0  0  0  0  0  0  0  0
   97.4782   48.0992  268.0294 H   0  0  0  0  0  0  0  0  0  0  0  0
   96.7900   45.9563  267.0796 H   0  0  0  0  0  0  0  0  0  0  0  0
   94.5300   45.6628  266.3393 H   0  0  0  0  0  0  0  0  0  0  0  0
   95.1075   51.6360  266.9074 H   0  0  0  0  0  0  0  0  0  0  0  0
   92.1437   50.7999  269.9026 H   0  0  0  0  0  0  0  0  0  0  0  0
   94.7474   55.6285  270.2102 H   0  0  0  0  0  0  0  0  0  0  0  0
   93.0445   55.1912  272.1724 H   0  0  0  0  0  0  0  0  0  0  0  0
   91.6165   53.3304  273.0179 H   0  0  0  0  0  0  0  0  0  0  0  0
   90.8646   52.3980  271.6794 H   0  0  0  0  0  0  0  0  0  0  0  0
   92.2523   51.7067  272.5866 H   0  0  0  0  0  0  0  0  0  0  0  0
   91.4212   47.5259  264.0164 H   0  0  0  0  0  0  0  0  0  0  0  0
   88.2420   45.3976  262.3305 H   0  0  0  0  0  0  0  0  0  0  0  0
   86.8923   45.6817  264.3655 H   0  0  0  0  0  0  0  0  0  0  0  0
   87.8877   45.6441  269.0281 H   0  0  0  0  0  0  0  0  0  0  0  0
   88.3644   44.6747  267.5930 H   0  0  0  0  0  0  0  0  0  0  0  0
   89.4270   46.0012  268.1741 H   0  0  0  0  0  0  0  0  0  0  0  0
  1  2  1  0  0  0  0
  1  4  1  0  0  0  0
  1 11  2  0  0  0  0
  2  3  2  0  0  0  0
  3  6  1  0  0  0  0
  3 12  1  0  0  0  0
  4  5  2  0  0  0  0
  5  6  1  0  0  0  0
  5 10  1  0  0  0  0
  6  7  2  0  0  0  0
  7  8  1  0  0  0  0
  8  9  2  0  0  0  0
  9 10  1  0  0  0  0
 11 22  1  0  0  0  0
 12 13  2  0  0  0  0
 12 15  1  0  0  0  0
 13 14  1  0  0  0  0
 14 17  2  0  0  0  0
 14 32  1  0  0  0  0
 15 16  2  0  0  0  0
 16 17  1  0  0  0  0
 16 20  1  0  0  0  0
 17 18  1  0  0  0  0
 18 19  2  0  0  0  0
 19 20  1  0  0  0  0
 20 21  1  0  0  0  0
 22 23  2  0  0  0  0
 22 27  1  0  0  0  0
 23 24  1  0  0  0  0
 24 25  2  0  0  0  0
 25 26  1  0  0  0  0
 26 27  2  0  0  0  0
 27 28  1  0  0  0  0
 28 29  2  0  0  0  0
 28 30  2  0  0  0  0
 28 31  1  0  0  0  0
  2 33  1  0  0  0  0
  4 34  1  0  0  0  0
  8 35  1  0  0  0  0
  9 36  1  0  0  0  0
 10 37  1  0  0  0  0
 13 38  1  0  0  0  0
 15 39  1  0  0  0  0
 18 40  1  0  0  0  0
 19 41  1  0  0  0  0
 21 42  1  0  0  0  0
 21 43  1  0  0  0  0
 21 44  1  0  0  0  0
 23 45  1  0  0  0  0
 25 46  1  0  0  0  0
 26 47  1  0  0  0  0
 31 48  1  0  0  0  0
 31 49  1  0  0  0  0
 31 50  1  0  0  0  0
M  END
> <ID>
55

> <IC50[uM]>
0.016

$$$$
55
  -OEChem-05192314313D
 Structure written by MMmdl.
 50 54  0     0  0  0  0  0  0999 V2000
   91.6118   48.3366  266.6739 C   0  0  0  0  0  0  0  0  0  0  0  0
   91.9698   49.5336  267.2864 C   0  0  0  0  0  0  0  0  0  0  0  0
   93.2850   49.8006  267.6832 C   0  0  0  0  0  0  0  0  0  0  0  0
   92.5678   47.3462  266.4685 C   0  0  0  0  0  0  0  0  0  0  0  0
   93.8944   47.5432  266.9034 C   0  0  0  0  0  0  0  0  0  0  0  0
   94.2719   48.7828  267.5077 C   0  0  0  0  0  0  0  0  0  0  0  0
   95.5609   48.9661  267.9314 N   0  0  0  0  0  0  0  0  0  0  0  0
   96.4476   47.9576  267.7393 C   0  0  0  0  0  0  0  0  0  0  0  0
   96.0612   46.7472  267.1782 C   0  0  0  0  0  0  0  0  0  0  0  0
   94.7955   46.5340  266.7522 N   0  0  0  0  0  0  0  0  0  0  0  0
   90.2745   48.1296  266.3175 N   0  0  0  0  0  0  0  0  0  0  0  0
   93.5938   51.0998  268.3264 C   0  0  0  0  0  0  0  0  0  0  0  0
   94.5697   51.9459  267.7912 C   0  0  0  0  0  0  0  0  0  0  0  0
   94.8659   53.1774  268.3682 C   0  0  0  0  0  0  0  0  0  0  0  0
   92.8971   51.4508  269.4842 C   0  0  0  0  0  0  0  0  0  0  0  0
   93.2083   52.6701  270.0801 C   0  0  0  0  0  0  0  0  0  0  0  0
   94.1610   53.5698  269.5192 C   0  0  0  0  0  0  0  0  0  0  0  0
   94.1614   54.7332  270.3565 C   0  0  0  0  0  0  0  0  0  0  0  0
   93.2770   54.4957  271.3795 C   0  0  0  0  0  0  0  0  0  0  0  0
   92.7328   53.2443  271.2449 N   0  0  0  0  0  0  0  0  0  0  0  0
   91.8103   52.6326  272.1899 C   0  0  0  0  0  0  0  0  0  0  0  0
   89.7167   47.3494  265.2904 C   0  0  0  0  0  0  0  0  0  0  0  0
   90.4217   47.1254  264.0999 C   0  0  0  0  0  0  0  0  0  0  0  0
   89.9191   46.4337  263.0465 N   0  0  0  0  0  0  0  0  0  0  0  0
   88.6626   45.9393  263.1648 C   0  0  0  0  0  0  0  0  0  0  0  0
   87.8878   46.0972  264.3127 C   0  0  0  0  0  0  0  0  0  0  0  0
   88.4240   46.8050  265.3972 C   0  0  0  0  0  0  0  0  0  0  0  0
   87.4806   46.8913  266.9254 S   0  0  0  0  0  0  0  0  0  0  0  0
   86.1391   46.3662  266.6675 O   0  0  0  0  0  0  0  0  0  0  0  0
   87.6492   48.2412  267.4790 O   0  0  0  0  0  0  0  0  0  0  0  0
   88.3838   45.6765  268.0468 C   0  0  0  0  0  0  0  0  0  0  0  0
   95.8038   53.9727  267.8010 F   0  0  0  0  0  0  0  0  0  0  0  0
   91.2089   50.2799  267.4611 H   0  0  0  0  0  0  0  0  0  0  0  0
   92.1998   46.4407  266.9731 H   0  0  0  0  0  0  0  0  0  0  0  0
   92.6127   47.1689  265.3838 H   0  0  0  0  0  0  0  0  0  0  0  0
   97.4782   48.0992  268.0294 H   0  0  0  0  0  0  0  0  0  0  0  0
   96.7900   45.9563  267.0796 H   0  0  0  0  0  0  0  0  0  0  0  0
   95.1075   51.6360  266.9074 H   0  0  0  0  0  0  0  0  0  0  0  0
   92.1437   50.7999  269.9026 H   0  0  0  0  0  0  0  0  0  0  0  0
   94.7474   55.6285  270.2102 H   0  0  0  0  0  0  0  0  0  0  0  0
   93.0445   55.1912  272.1724 H   0  0  0  0  0  0  0  0  0  0  0  0
   91.6165   53.3304  273.0179 H   0  0  0  0  0  0  0  0  0  0  0  0
   90.8646   52.3980  271.6794 H   0  0  0  0  0  0  0  0  0  0  0  0
   92.2523   51.7067  272.5866 H   0  0  0  0  0  0  0  0  0  0  0  0
   91.4212   47.5259  264.0164 H   0  0  0  0  0  0  0  0  0  0  0  0
   88.2420   45.3976  262.3305 H   0  0  0  0  0  0  0  0  0  0  0  0
   86.8923   45.6817  264.3655 H   0  0  0  0  0  0  0  0  0  0  0  0
   87.8877   45.6441  269.0281 H   0  0  0  0  0  0  0  0  0  0  0  0
   88.3644   44.6747  267.5930 H   0  0  0  0  0  0  0  0  0  0  0  0
   89.4270   46.0012  268.1741 H   0  0  0  0  0  0  0  0  0  0  0  0
  1  2  1  0  0  0  0
  1  4  1  0  0  0  0
  1 11  2  0  0  0  0
  2  3  2  0  0  0  0
  3  6  1  0  0  0  0
  3 12  1  0  0  0  0
  4  5  1  0  0  0  0
  5  6  2  0  0  0  0
  5 10  1  0  0  0  0
  6  7  1  0  0  0  0
  7  8  2  0  0  0  0
  8  9  1  0  0  0  0
  9 10  2  0  0  0  0
 11 22  1  0  0  0  0
 12 13  2  0  0  0  0
 12 15  1  0  0  0  0
 13 14  1  0  0  0  0
 14 17  2  0  0  0  0
 14 32  1  0  0  0  0
 15 16  2  0  0  0  0
 16 17  1  0  0  0  0
 16 20  1  0  0  0  0
 17 18  1  0  0  0  0
 18 19  2  0  0  0  0
 19 20  1  0  0  0  0
 20 21  1  0  0  0  0
 22 23  2  0  0  0  0
 22 27  1  0  0  0  0
 23 24  1  0  0  0  0
 24 25  2  0  0  0  0
 25 26  1  0  0  0  0
 26 27  2  0  0  0  0
 27 28  1  0  0  0  0
 28 29  2  0  0  0  0
 28 30  2  0  0  0  0
 28 31  1  0  0  0  0
  2 33  1  0  0  0  0
  4 34  1  0  0  0  0
  4 35  1  0  0  0  0
  8 36  1  0  0  0  0
  9 37  1  0  0  0  0
 13 38  1  0  0  0  0
 15 39  1  0  0  0  0
 18 40  1  0  0  0  0
 19 41  1  0  0  0  0
 21 42  1  0  0  0  0
 21 43  1  0  0  0  0
 21 44  1  0  0  0  0
 23 45  1  0  0  0  0
 25 46  1  0  0  0  0
 26 47  1  0  0  0  0
 31 48  1  0  0  0  0
 31 49  1  0  0  0  0
 31 50  1  0  0  0  0
M  END
> <ID>
55

> <IC50[uM]>
0.016

$$$$
55
  -OEChem-05192314313D
 Structure written by MMmdl.
 50 54  0     0  0  0  0  0  0999 V2000
   91.6118   48.3366  266.6739 C   0  0  0  0  0  0  0  0  0  0  0  0
   91.9698   49.5336  267.2864 C   0  0  0  0  0  0  0  0  0  0  0  0
   93.2850   49.8006  267.6832 C   0  0  0  0  0  0  0  0  0  0  0  0
   92.5678   47.3462  266.4685 C   0  0  0  0  0  0  0  0  0  0  0  0
   93.8944   47.5432  266.9034 C   0  0  0  0  0  0  0  0  0  0  0  0
   94.2719   48.7828  267.5077 C   0  0  0  0  0  0  0  0  0  0  0  0
   95.5609   48.9661  267.9314 N   0  0  0  0  0  0  0  0  0  0  0  0
   96.4476   47.9576  267.7393 C   0  0  0  0  0  0  0  0  0  0  0  0
   96.0612   46.7472  267.1782 C   0  0  0  0  0  0  0  0  0  0  0  0
   94.7955   46.5340  266.7522 N   0  0  0  0  0  0  0  0  0  0  0  0
   90.2745   48.1296  266.3175 N   0  0  0  0  0  0  0  0  0  0  0  0
   93.5938   51.0998  268.3264 C   0  0  0  0  0  0  0  0  0  0  0  0
   94.5697   51.9459  267.7912 C   0  0  0  0  0  0  0  0  0  0  0  0
   94.8659   53.1774  268.3682 C   0  0  0  0  0  0  0  0  0  0  0  0
   92.8971   51.4508  269.4842 C   0  0  0  0  0  0  0  0  0  0  0  0
   93.2083   52.6701  270.0801 C   0  0  0  0  0  0  0  0  0  0  0  0
   94.1610   53.5698  269.5192 C   0  0  0  0  0  0  0  0  0  0  0  0
   94.1614   54.7332  270.3565 C   0  0  0  0  0  0  0  0  0  0  0  0
   93.2770   54.4957  271.3795 C   0  0  0  0  0  0  0  0  0  0  0  0
   92.7328   53.2443  271.2449 N   0  0  0  0  0  0  0  0  0  0  0  0
   91.8103   52.6326  272.1899 C   0  0  0  0  0  0  0  0  0  0  0  0
   89.7167   47.3494  265.2904 C   0  0  0  0  0  0  0  0  0  0  0  0
   90.4217   47.1254  264.0999 C   0  0  0  0  0  0  0  0  0  0  0  0
   89.9191   46.4337  263.0465 N   0  0  0  0  0  0  0  0  0  0  0  0
   88.6626   45.9393  263.1648 C   0  0  0  0  0  0  0  0  0  0  0  0
   87.8878   46.0972  264.3127 C   0  0  0  0  0  0  0  0  0  0  0  0
   88.4240   46.8050  265.3972 C   0  0  0  0  0  0  0  0  0  0  0  0
   87.4806   46.8913  266.9254 S   0  0  0  0  0  0  0  0  0  0  0  0
   86.1391   46.3662  266.6675 O   0  0  0  0  0  0  0  0  0  0  0  0
   87.6492   48.2412  267.4790 O   0  0  0  0  0  0  0  0  0  0  0  0
   88.3838   45.6765  268.0468 C   0  0  0  0  0  0  0  0  0  0  0  0
   95.8038   53.9727  267.8010 F   0  0  0  0  0  0  0  0  0  0  0  0
   91.6919   50.3336  266.5844 H   0  0  0  0  0  0  0  0  0  0  0  0
   91.3529   49.6114  268.1938 H   0  0  0  0  0  0  0  0  0  0  0  0
   92.2931   46.4255  265.9753 H   0  0  0  0  0  0  0  0  0  0  0  0
   97.4782   48.0992  268.0294 H   0  0  0  0  0  0  0  0  0  0  0  0
   96.7900   45.9563  267.0796 H   0  0  0  0  0  0  0  0  0  0  0  0
   95.1075   51.6360  266.9074 H   0  0  0  0  0  0  0  0  0  0  0  0
   92.1437   50.7999  269.9026 H   0  0  0  0  0  0  0  0  0  0  0  0
   94.7474   55.6285  270.2102 H   0  0  0  0  0  0  0  0  0  0  0  0
   93.0445   55.1912  272.1724 H   0  0  0  0  0  0  0  0  0  0  0  0
   91.6165   53.3304  273.0179 H   0  0  0  0  0  0  0  0  0  0  0  0
   90.8646   52.3980  271.6794 H   0  0  0  0  0  0  0  0  0  0  0  0
   92.2523   51.7067  272.5866 H   0  0  0  0  0  0  0  0  0  0  0  0
   91.4212   47.5259  264.0164 H   0  0  0  0  0  0  0  0  0  0  0  0
   88.2420   45.3976  262.3305 H   0  0  0  0  0  0  0  0  0  0  0  0
   86.8923   45.6817  264.3655 H   0  0  0  0  0  0  0  0  0  0  0  0
   87.8877   45.6441  269.0281 H   0  0  0  0  0  0  0  0  0  0  0  0
   88.3644   44.6747  267.5930 H   0  0  0  0  0  0  0  0  0  0  0  0
   89.4270   46.0012  268.1741 H   0  0  0  0  0  0  0  0  0  0  0  0
  1  2  1  0  0  0  0
  1  4  1  0  0  0  0
  1 11  2  0  0  0  0
  2  3  1  0  0  0  0
  3  6  2  0  0  0  0
  3 12  1  0  0  0  0
  4  5  2  0  0  0  0
  5  6  1  0  0  0  0
  5 10  1  0  0  0  0
  6  7  1  0  0  0  0
  7  8  2  0  0  0  0
  8  9  1  0  0  0  0
  9 10  2  0  0  0  0
 11 22  1  0  0  0  0
 12 13  2  0  0  0  0
 12 15  1  0  0  0  0
 13 14  1  0  0  0  0
 14 17  2  0  0  0  0
 14 32  1  0  0  0  0
 15 16  2  0  0  0  0
 16 17  1  0  0  0  0
 16 20  1  0  0  0  0
 17 18  1  0  0  0  0
 18 19  2  0  0  0  0
 19 20  1  0  0  0  0
 20 21  1  0  0  0  0
 22 23  2  0  0  0  0
 22 27  1  0  0  0  0
 23 24  1  0  0  0  0
 24 25  2  0  0  0  0
 25 26  1  0  0  0  0
 26 27  2  0  0  0  0
 27 28  1  0  0  0  0
 28 29  2  0  0  0  0
 28 30  2  0  0  0  0
 28 31  1  0  0  0  0
  2 33  1  0  0  0  0
  2 34  1  0  0  0  0
  4 35  1  0  0  0  0
  8 36  1  0  0  0  0
  9 37  1  0  0  0  0
 13 38  1  0  0  0  0
 15 39  1  0  0  0  0
 18 40  1  0  0  0  0
 19 41  1  0  0  0  0
 21 42  1  0  0  0  0
 21 43  1  0  0  0  0
 21 44  1  0  0  0  0
 23 45  1  0  0  0  0
 25 46  1  0  0  0  0
 26 47  1  0  0  0  0
 31 48  1  0  0  0  0
 31 49  1  0  0  0  0
 31 50  1  0  0  0  0
M  END
> <ID>
55

> <IC50[uM]>
0.016

$$$$
55
  -OEChem-05192314313D
 Structure written by MMmdl.
 50 54  0     1  0  0  0  0  0999 V2000
   91.6118   48.3366  266.6739 C   0  0  0  0  0  0  0  0  0  0  0  0
   91.9698   49.5336  267.2864 C   0  0  0  0  0  0  0  0  0  0  0  0
   93.2850   49.8006  267.6832 C   0  0  0  0  0  0  0  0  0  0  0  0
   92.5678   47.3462  266.4685 C   0  0  0  0  0  0  0  0  0  0  0  0
   93.8944   47.5432  266.9034 C   0  0  0  0  0  0  0  0  0  0  0  0
   94.2719   48.7828  267.5077 C   0  0  0  0  0  0  0  0  0  0  0  0
   95.5609   48.9661  267.9314 N   0  0  0  0  0  0  0  0  0  0  0  0
   96.4476   47.9576  267.7393 C   0  0  0  0  0  0  0  0  0  0  0  0
   96.0612   46.7472  267.1782 C   0  0  0  0  0  0  0  0  0  0  0  0
   94.7955   46.5340  266.7522 N   0  0  0  0  0  0  0  0  0  0  0  0
   90.2745   48.1296  266.3175 N   0  0  0  0  0  0  0  0  0  0  0  0
   93.5938   51.0998  268.3264 C   0  0  0  0  0  0  0  0  0  0  0  0
   94.5697   51.9459  267.7912 C   0  0  0  0  0  0  0  0  0  0  0  0
   94.8659   53.1774  268.3682 C   0  0  0  0  0  0  0  0  0  0  0  0
   92.8971   51.4508  269.4842 C   0  0  0  0  0  0  0  0  0  0  0  0
   93.2083   52.6701  270.0801 C   0  0  0  0  0  0  0  0  0  0  0  0
   94.1610   53.5698  269.5192 C   0  0  0  0  0  0  0  0  0  0  0  0
   94.1614   54.7332  270.3565 C   0  0  0  0  0  0  0  0  0  0  0  0
   93.2770   54.4957  271.3795 C   0  0  0  0  0  0  0  0  0  0  0  0
   92.7328   53.2443  271.2449 N   0  0  0  0  0  0  0  0  0  0  0  0
   91.8103   52.6326  272.1899 C   0  0  0  0  0  0  0  0  0  0  0  0
   89.7167   47.3494  265.2904 C   0  0  0  0  0  0  0  0  0  0  0  0
   90.4217   47.1254  264.0999 C   0  0  0  0  0  0  0  0  0  0  0  0
   89.9191   46.4337  263.0465 N   0  0  0  0  0  0  0  0  0  0  0  0
   88.6626   45.9393  263.1648 C   0  0  0  0  0  0  0  0  0  0  0  0
   87.8878   46.0972  264.3127 C   0  0  0  0  0  0  0  0  0  0  0  0
   88.4240   46.8050  265.3972 C   0  0  3  0  0  0  0  0  0  0  0  0
   87.4806   46.8913  266.9254 S   0  0  0  0  0  0  0  0  0  0  0  0
   86.1391   46.3662  266.6675 O   0  0  0  0  0  0  0  0  0  0  0  0
   87.6492   48.2412  267.4790 O   0  0  0  0  0  0  0  0  0  0  0  0
   88.3838   45.6765  268.0468 C   0  0  0  0  0  0  0  0  0  0  0  0
   95.8038   53.9727  267.8010 F   0  0  0  0  0  0  0  0  0  0  0  0
   91.2089   50.2799  267.4611 H   0  0  0  0  0  0  0  0  0  0  0  0
   92.2931   46.4255  265.9753 H   0  0  0  0  0  0  0  0  0  0  0  0
   97.4782   48.0992  268.0294 H   0  0  0  0  0  0  0  0  0  0  0  0
   96.7900   45.9563  267.0796 H   0  0  0  0  0  0  0  0  0  0  0  0
   95.1075   51.6360  266.9074 H   0  0  0  0  0  0  0  0  0  0  0  0
   92.1437   50.7999  269.9026 H   0  0  0  0  0  0  0  0  0  0  0  0
   94.7474   55.6285  270.2102 H   0  0  0  0  0  0  0  0  0  0  0  0
   93.0445   55.1912  272.1724 H   0  0  0  0  0  0  0  0  0  0  0  0
   91.6165   53.3304  273.0179 H   0  0  0  0  0  0  0  0  0  0  0  0
   90.8646   52.3980  271.6794 H   0  0  0  0  0  0  0  0  0  0  0  0
   92.2523   51.7067  272.5866 H   0  0  0  0  0  0  0  0  0  0  0  0
   91.4212   47.5259  264.0164 H   0  0  0  0  0  0  0  0  0  0  0  0
   88.2420   45.3976  262.3305 H   0  0  0  0  0  0  0  0  0  0  0  0
   86.8923   45.6817  264.3655 H   0  0  0  0  0  0  0  0  0  0  0  0
   87.9720   47.7427  265.0417 H   0  0  0  0  0  0  0  0  0  0  0  0
   87.8877   45.6441  269.0281 H   0  0  0  0  0  0  0  0  0  0  0  0
   88.3644   44.6747  267.5930 H   0  0  0  0  0  0  0  0  0  0  0  0
   89.4270   46.0012  268.1741 H   0  0  0  0  0  0  0  0  0  0  0  0
  1  2  2  0  0  0  0
  1  4  1  0  0  0  0
  1 11  1  0  0  0  0
  2  3  1  0  0  0  0
  3  6  2  0  0  0  0
  3 12  1  0  0  0  0
  4  5  2  0  0  0  0
  5  6  1  0  0  0  0
  5 10  1  0  0  0  0
  6  7  1  0  0  0  0
  7  8  2  0  0  0  0
  8  9  1  0  0  0  0
  9 10  2  0  0  0  0
 11 22  2  0  0  0  0
 12 13  2  0  0  0  0
 12 15  1  0  0  0  0
 13 14  1  0  0  0  0
 14 17  2  0  0  0  0
 14 32  1  0  0  0  0
 15 16  2  0  0  0  0
 16 17  1  0  0  0  0
 16 20  1  0  0  0  0
 17 18  1  0  0  0  0
 18 19  2  0  0  0  0
 19 20  1  0  0  0  0
 20 21  1  0  0  0  0
 22 23  1  0  0  0  0
 22 27  1  0  0  0  0
 23 24  2  0  0  0  0
 24 25  1  0  0  0  0
 25 26  2  0  0  0  0
 26 27  1  0  0  0  0
 27 28  1  0  0  0  0
 28 29  2  0  0  0  0
 28 30  2  0  0  0  0
 28 31  1  0  0  0  0
  2 33  1  0  0  0  0
  4 34  1  0  0  0  0
  8 35  1  0  0  0  0
  9 36  1  0  0  0  0
 13 37  1  0  0  0  0
 15 38  1  0  0  0  0
 18 39  1  0  0  0  0
 19 40  1  0  0  0  0
 21 41  1  0  0  0  0
 21 42  1  0  0  0  0
 21 43  1  0  0  0  0
 23 44  1  0  0  0  0
 25 45  1  0  0  0  0
 26 46  1  0  0  0  0
 27 47  1  0  0  0  0
 31 48  1  0  0  0  0
 31 49  1  0  0  0  0
 31 50  1  0  0  0  0
M  END
> <ID>
55

> <IC50[uM]>
0.016

$$$$
55
  -OEChem-05192314313D
 Structure written by MMmdl.
 50 54  0     0  0  0  0  0  0999 V2000
   91.6118   48.3366  266.6739 C   0  0  0  0  0  0  0  0  0  0  0  0
   91.9698   49.5336  267.2864 C   0  0  0  0  0  0  0  0  0  0  0  0
   93.2850   49.8006  267.6832 C   0  0  0  0  0  0  0  0  0  0  0  0
   92.5678   47.3462  266.4685 C   0  0  0  0  0  0  0  0  0  0  0  0
   93.8944   47.5432  266.9034 C   0  0  0  0  0  0  0  0  0  0  0  0
   94.2719   48.7828  267.5077 C   0  0  0  0  0  0  0  0  0  0  0  0
   95.5609   48.9661  267.9314 N   0  0  0  0  0  0  0  0  0  0  0  0
   96.4476   47.9576  267.7393 C   0  0  0  0  0  0  0  0  0  0  0  0
   96.0612   46.7472  267.1782 C   0  0  0  0  0  0  0  0  0  0  0  0
   94.7955   46.5340  266.7522 N   0  0  0  0  0  0  0  0  0  0  0  0
   90.2745   48.1296  266.3175 N   0  0  0  0  0  0  0  0  0  0  0  0
   93.5938   51.0998  268.3264 C   0  0  0  0  0  0  0  0  0  0  0  0
   94.5697   51.9459  267.7912 C   0  0  0  0  0  0  0  0  0  0  0  0
   94.8659   53.1774  268.3682 C   0  0  0  0  0  0  0  0  0  0  0  0
   92.8971   51.4508  269.4842 C   0  0  0  0  0  0  0  0  0  0  0  0
   93.2083   52.6701  270.0801 C   0  0  0  0  0  0  0  0  0  0  0  0
   94.1610   53.5698  269.5192 C   0  0  0  0  0  0  0  0  0  0  0  0
   94.1614   54.7332  270.3565 C   0  0  0  0  0  0  0  0  0  0  0  0
   93.2770   54.4957  271.3795 C   0  0  0  0  0  0  0  0  0  0  0  0
   92.7328   53.2443  271.2449 N   0  0  0  0  0  0  0  0  0  0  0  0
   91.8103   52.6326  272.1899 C   0  0  0  0  0  0  0  0  0  0  0  0
   89.7167   47.3494  265.2904 C   0  0  0  0  0  0  0  0  0  0  0  0
   90.4217   47.1254  264.0999 C   0  0  0  0  0  0  0  0  0  0  0  0
   89.9191   46.4337  263.0465 N   0  0  0  0  0  0  0  0  0  0  0  0
   88.6626   45.9393  263.1648 C   0  0  0  0  0  0  0  0  0  0  0  0
   87.8878   46.0972  264.3127 C   0  0  0  0  0  0  0  0  0  0  0  0
   88.4240   46.8050  265.3972 C   0  0  0  0  0  0  0  0  0  0  0  0
   87.4806   46.8913  266.9254 S   0  0  0  0  0  0  0  0  0  0  0  0
   86.1391   46.3662  266.6675 O   0  0  0  0  0  0  0  0  0  0  0  0
   87.6492   48.2412  267.4790 O   0  0  0  0  0  0  0  0  0  0  0  0
   88.3838   45.6765  268.0468 C   0  0  0  0  0  0  0  0  0  0  0  0
   95.8038   53.9727  267.8010 F   0  0  0  0  0  0  0  0  0  0  0  0
   91.2089   50.2799  267.4611 H   0  0  0  0  0  0  0  0  0  0  0  0
   92.2931   46.4255  265.9753 H   0  0  0  0  0  0  0  0  0  0  0  0
   97.4782   48.0992  268.0294 H   0  0  0  0  0  0  0  0  0  0  0  0
   96.7900   45.9563  267.0796 H   0  0  0  0  0  0  0  0  0  0  0  0
   95.1075   51.6360  266.9074 H   0  0  0  0  0  0  0  0  0  0  0  0
   92.1437   50.7999  269.9026 H   0  0  0  0  0  0  0  0  0  0  0  0
   94.7474   55.6285  270.2102 H   0  0  0  0  0  0  0  0  0  0  0  0
   93.0445   55.1912  272.1724 H   0  0  0  0  0  0  0  0  0  0  0  0
   91.6165   53.3304  273.0179 H   0  0  0  0  0  0  0  0  0  0  0  0
   90.8646   52.3980  271.6794 H   0  0  0  0  0  0  0  0  0  0  0  0
   92.2523   51.7067  272.5866 H   0  0  0  0  0  0  0  0  0  0  0  0
   91.4212   47.5259  264.0164 H   0  0  0  0  0  0  0  0  0  0  0  0
   88.0827   46.3871  262.3443 H   0  0  0  0  0  0  0  0  0  0  0  0
   88.7479   44.8545  263.0041 H   0  0  0  0  0  0  0  0  0  0  0  0
   86.8923   45.6817  264.3655 H   0  0  0  0  0  0  0  0  0  0  0  0
   87.8877   45.6441  269.0281 H   0  0  0  0  0  0  0  0  0  0  0  0
   88.3644   44.6747  267.5930 H   0  0  0  0  0  0  0  0  0  0  0  0
   89.4270   46.0012  268.1741 H   0  0  0  0  0  0  0  0  0  0  0  0
  1  2  2  0  0  0  0
  1  4  1  0  0  0  0
  1 11  1  0  0  0  0
  2  3  1  0  0  0  0
  3  6  2  0  0  0  0
  3 12  1  0  0  0  0
  4  5  2  0  0  0  0
  5  6  1  0  0  0  0
  5 10  1  0  0  0  0
  6  7  1  0  0  0  0
  7  8  2  0  0  0  0
  8  9  1  0  0  0  0
  9 10  2  0  0  0  0
 11 22  2  0  0  0  0
 12 13  2  0  0  0  0
 12 15  1  0  0  0  0
 13 14  1  0  0  0  0
 14 17  2  0  0  0  0
 14 32  1  0  0  0  0
 15 16  2  0  0  0  0
 16 17  1  0  0  0  0
 16 20  1  0  0  0  0
 17 18  1  0  0  0  0
 18 19  2  0  0  0  0
 19 20  1  0  0  0  0
 20 21  1  0  0  0  0
 22 23  1  0  0  0  0
 22 27  1  0  0  0  0
 23 24  2  0  0  0  0
 24 25  1  0  0  0  0
 25 26  1  0  0  0  0
 26 27  2  0  0  0  0
 27 28  1  0  0  0  0
 28 29  2  0  0  0  0
 28 30  2  0  0  0  0
 28 31  1  0  0  0  0
  2 33  1  0  0  0  0
  4 34  1  0  0  0  0
  8 35  1  0  0  0  0
  9 36  1  0  0  0  0
 13 37  1  0  0  0  0
 15 38  1  0  0  0  0
 18 39  1  0  0  0  0
 19 40  1  0  0  0  0
 21 41  1  0  0  0  0
 21 42  1  0  0  0  0
 21 43  1  0  0  0  0
 23 44  1  0  0  0  0
 25 45  1  0  0  0  0
 25 46  1  0  0  0  0
 26 47  1  0  0  0  0
 31 48  1  0  0  0  0
 31 49  1  0  0  0  0
 31 50  1  0  0  0  0
M  END
> <ID>
55

> <IC50[uM]>
0.016

$$$$
55
  -OEChem-05192314313D
 Structure written by MMmdl.
 50 54  0     0  0  0  0  0  0999 V2000
   91.6118   48.3366  266.6739 C   0  0  0  0  0  0  0  0  0  0  0  0
   91.9698   49.5336  267.2864 C   0  0  0  0  0  0  0  0  0  0  0  0
   93.2850   49.8006  267.6832 C   0  0  0  0  0  0  0  0  0  0  0  0
   92.5678   47.3462  266.4685 C   0  0  0  0  0  0  0  0  0  0  0  0
   93.8944   47.5432  266.9034 C   0  0  0  0  0  0  0  0  0  0  0  0
   94.2719   48.7828  267.5077 C   0  0  0  0  0  0  0  0  0  0  0  0
   95.5609   48.9661  267.9314 N   0  0  0  0  0  0  0  0  0  0  0  0
   96.4476   47.9576  267.7393 C   0  0  0  0  0  0  0  0  0  0  0  0
   96.0612   46.7472  267.1782 C   0  0  0  0  0  0  0  0  0  0  0  0
   94.7955   46.5340  266.7522 N   0  0  0  0  0  0  0  0  0  0  0  0
   90.2745   48.1296  266.3175 N   0  0  0  0  0  0  0  0  0  0  0  0
   93.5938   51.0998  268.3264 C   0  0  0  0  0  0  0  0  0  0  0  0
   94.5697   51.9459  267.7912 C   0  0  0  0  0  0  0  0  0  0  0  0
   94.8659   53.1774  268.3682 C   0  0  0  0  0  0  0  0  0  0  0  0
   92.8971   51.4508  269.4842 C   0  0  0  0  0  0  0  0  0  0  0  0
   93.2083   52.6701  270.0801 C   0  0  0  0  0  0  0  0  0  0  0  0
   94.1610   53.5698  269.5192 C   0  0  0  0  0  0  0  0  0  0  0  0
   94.1614   54.7332  270.3565 C   0  0  0  0  0  0  0  0  0  0  0  0
   93.2770   54.4957  271.3795 C   0  0  0  0  0  0  0  0  0  0  0  0
   92.7328   53.2443  271.2449 N   0  0  0  0  0  0  0  0  0  0  0  0
   91.8103   52.6326  272.1899 C   0  0  0  0  0  0  0  0  0  0  0  0
   89.7167   47.3494  265.2904 C   0  0  0  0  0  0  0  0  0  0  0  0
   90.4217   47.1254  264.0999 C   0  0  0  0  0  0  0  0  0  0  0  0
   89.9191   46.4337  263.0465 N   0  0  0  0  0  0  0  0  0  0  0  0
   88.6626   45.9393  263.1648 C   0  0  0  0  0  0  0  0  0  0  0  0
   87.8878   46.0972  264.3127 C   0  0  0  0  0  0  0  0  0  0  0  0
   88.4240   46.8050  265.3972 C   0  0  0  0  0  0  0  0  0  0  0  0
   87.4806   46.8913  266.9254 S   0  0  0  0  0  0  0  0  0  0  0  0
   86.1391   46.3662  266.6675 O   0  0  0  0  0  0  0  0  0  0  0  0
   87.6492   48.2412  267.4790 O   0  0  0  0  0  0  0  0  0  0  0  0
   88.3838   45.6765  268.0468 C   0  0  0  0  0  0  0  0  0  0  0  0
   95.8038   53.9727  267.8010 F   0  0  0  0  0  0  0  0  0  0  0  0
   91.2089   50.2799  267.4611 H   0  0  0  0  0  0  0  0  0  0  0  0
   92.2931   46.4255  265.9753 H   0  0  0  0  0  0  0  0  0  0  0  0
   97.4782   48.0992  268.0294 H   0  0  0  0  0  0  0  0  0  0  0  0
   96.7900   45.9563  267.0796 H   0  0  0  0  0  0  0  0  0  0  0  0
   95.1075   51.6360  266.9074 H   0  0  0  0  0  0  0  0  0  0  0  0
   92.1437   50.7999  269.9026 H   0  0  0  0  0  0  0  0  0  0  0  0
   94.7474   55.6285  270.2102 H   0  0  0  0  0  0  0  0  0  0  0  0
   93.0445   55.1912  272.1724 H   0  0  0  0  0  0  0  0  0  0  0  0
   91.6165   53.3304  273.0179 H   0  0  0  0  0  0  0  0  0  0  0  0
   90.8646   52.3980  271.6794 H   0  0  0  0  0  0  0  0  0  0  0  0
   92.2523   51.7067  272.5866 H   0  0  0  0  0  0  0  0  0  0  0  0
   90.6760   48.1221  263.7101 H   0  0  0  0  0  0  0  0  0  0  0  0
   91.3429   46.5998  264.3915 H   0  0  0  0  0  0  0  0  0  0  0  0
   88.2420   45.3976  262.3305 H   0  0  0  0  0  0  0  0  0  0  0  0
   86.8923   45.6817  264.3655 H   0  0  0  0  0  0  0  0  0  0  0  0
   87.8877   45.6441  269.0281 H   0  0  0  0  0  0  0  0  0  0  0  0
   88.3644   44.6747  267.5930 H   0  0  0  0  0  0  0  0  0  0  0  0
   89.4270   46.0012  268.1741 H   0  0  0  0  0  0  0  0  0  0  0  0
  1  2  2  0  0  0  0
  1  4  1  0  0  0  0
  1 11  1  0  0  0  0
  2  3  1  0  0  0  0
  3  6  2  0  0  0  0
  3 12  1  0  0  0  0
  4  5  2  0  0  0  0
  5  6  1  0  0  0  0
  5 10  1  0  0  0  0
  6  7  1  0  0  0  0
  7  8  2  0  0  0  0
  8  9  1  0  0  0  0
  9 10  2  0  0  0  0
 11 22  2  0  0  0  0
 12 13  2  0  0  0  0
 12 15  1  0  0  0  0
 13 14  1  0  0  0  0
 14 17  2  0  0  0  0
 14 32  1  0  0  0  0
 15 16  2  0  0  0  0
 16 17  1  0  0  0  0
 16 20  1  0  0  0  0
 17 18  1  0  0  0  0
 18 19  2  0  0  0  0
 19 20  1  0  0  0  0
 20 21  1  0  0  0  0
 22 23  1  0  0  0  0
 22 27  1  0  0  0  0
 23 24  1  0  0  0  0
 24 25  2  0  0  0  0
 25 26  1  0  0  0  0
 26 27  2  0  0  0  0
 27 28  1  0  0  0  0
 28 29  2  0  0  0  0
 28 30  2  0  0  0  0
 28 31  1  0  0  0  0
  2 33  1  0  0  0  0
  4 34  1  0  0  0  0
  8 35  1  0  0  0  0
  9 36  1  0  0  0  0
 13 37  1  0  0  0  0
 15 38  1  0  0  0  0
 18 39  1  0  0  0  0
 19 40  1  0  0  0  0
 21 41  1  0  0  0  0
 21 42  1  0  0  0  0
 21 43  1  0  0  0  0
 23 44  1  0  0  0  0
 23 45  1  0  0  0  0
 25 46  1  0  0  0  0
 26 47  1  0  0  0  0
 31 48  1  0  0  0  0
 31 49  1  0  0  0  0
 31 50  1  0  0  0  0
M  END
> <ID>
55

> <IC50[uM]>
0.016

$$$$
55
  -OEChem-05192314313D
 Structure written by MMmdl.
 50 54  0     1  0  0  0  0  0999 V2000
   91.6118   48.3366  266.6739 C   0  0  0  0  0  0  0  0  0  0  0  0
   91.9698   49.5336  267.2864 C   0  0  0  0  0  0  0  0  0  0  0  0
   93.2850   49.8006  267.6832 C   0  0  0  0  0  0  0  0  0  0  0  0
   92.5678   47.3462  266.4685 C   0  0  0  0  0  0  0  0  0  0  0  0
   93.8944   47.5432  266.9034 C   0  0  0  0  0  0  0  0  0  0  0  0
   94.2719   48.7828  267.5077 C   0  0  3  0  0  0  0  0  0  0  0  0
   95.5609   48.9661  267.9314 N   0  0  0  0  0  0  0  0  0  0  0  0
   96.4476   47.9576  267.7393 C   0  0  0  0  0  0  0  0  0  0  0  0
   96.0612   46.7472  267.1782 C   0  0  0  0  0  0  0  0  0  0  0  0
   94.7955   46.5340  266.7522 N   0  0  0  0  0  0  0  0  0  0  0  0
   90.2745   48.1296  266.3175 N   0  0  0  0  0  0  0  0  0  0  0  0
   93.5938   51.0998  268.3264 C   0  0  0  0  0  0  0  0  0  0  0  0
   94.5697   51.9459  267.7912 C   0  0  0  0  0  0  0  0  0  0  0  0
   94.8659   53.1774  268.3682 C   0  0  0  0  0  0  0  0  0  0  0  0
   92.8971   51.4508  269.4842 C   0  0  0  0  0  0  0  0  0  0  0  0
   93.2083   52.6701  270.0801 C   0  0  0  0  0  0  0  0  0  0  0  0
   94.1610   53.5698  269.5192 C   0  0  0  0  0  0  0  0  0  0  0  0
   94.1614   54.7332  270.3565 C   0  0  0  0  0  0  0  0  0  0  0  0
   93.2770   54.4957  271.3795 C   0  0  0  0  0  0  0  0  0  0  0  0
   92.7328   53.2443  271.2449 N   0  0  0  0  0  0  0  0  0  0  0  0
   91.8103   52.6326  272.1899 C   0  0  0  0  0  0  0  0  0  0  0  0
   89.7167   47.3494  265.2904 C   0  0  0  0  0  0  0  0  0  0  0  0
   90.4217   47.1254  264.0999 C   0  0  0  0  0  0  0  0  0  0  0  0
   89.9191   46.4337  263.0465 N   0  0  0  0  0  0  0  0  0  0  0  0
   88.6626   45.9393  263.1648 C   0  0  0  0  0  0  0  0  0  0  0  0
   87.8878   46.0972  264.3127 C   0  0  0  0  0  0  0  0  0  0  0  0
   88.4240   46.8050  265.3972 C   0  0  0  0  0  0  0  0  0  0  0  0
   87.4806   46.8913  266.9254 S   0  0  0  0  0  0  0  0  0  0  0  0
   86.1391   46.3662  266.6675 O   0  0  0  0  0  0  0  0  0  0  0  0
   87.6492   48.2412  267.4790 O   0  0  0  0  0  0  0  0  0  0  0  0
   88.3838   45.6765  268.0468 C   0  0  0  0  0  0  0  0  0  0  0  0
   95.8038   53.9727  267.8010 F   0  0  0  0  0  0  0  0  0  0  0  0
   91.2089   50.2799  267.4611 H   0  0  0  0  0  0  0  0  0  0  0  0
   92.2931   46.4255  265.9753 H   0  0  0  0  0  0  0  0  0  0  0  0
   94.5302   49.1935  266.5205 H   0  0  0  0  0  0  0  0  0  0  0  0
   97.4782   48.0992  268.0294 H   0  0  0  0  0  0  0  0  0  0  0  0
   96.7900   45.9563  267.0796 H   0  0  0  0  0  0  0  0  0  0  0  0
   95.1075   51.6360  266.9074 H   0  0  0  0  0  0  0  0  0  0  0  0
   92.1437   50.7999  269.9026 H   0  0  0  0  0  0  0  0  0  0  0  0
   94.7474   55.6285  270.2102 H   0  0  0  0  0  0  0  0  0  0  0  0
   93.0445   55.1912  272.1724 H   0  0  0  0  0  0  0  0  0  0  0  0
   91.6165   53.3304  273.0179 H   0  0  0  0  0  0  0  0  0  0  0  0
   90.8646   52.3980  271.6794 H   0  0  0  0  0  0  0  0  0  0  0  0
   92.2523   51.7067  272.5866 H   0  0  0  0  0  0  0  0  0  0  0  0
   91.4212   47.5259  264.0164 H   0  0  0  0  0  0  0  0  0  0  0  0
   88.2420   45.3976  262.3305 H   0  0  0  0  0  0  0  0  0  0  0  0
   86.8923   45.6817  264.3655 H   0  0  0  0  0  0  0  0  0  0  0  0
   87.8877   45.6441  269.0281 H   0  0  0  0  0  0  0  0  0  0  0  0
   88.3644   44.6747  267.5930 H   0  0  0  0  0  0  0  0  0  0  0  0
   89.4270   46.0012  268.1741 H   0  0  0  0  0  0  0  0  0  0  0  0
  1  2  1  0  0  0  0
  1  4  1  0  0  0  0
  1 11  2  0  0  0  0
  2  3  2  0  0  0  0
  3  6  1  0  0  0  0
  3 12  1  0  0  0  0
  4  5  2  0  0  0  0
  5  6  1  0  0  0  0
  5 10  1  0  0  0  0
  6  7  1  0  0  0  0
  7  8  2  0  0  0  0
  8  9  1  0  0  0  0
  9 10  2  0  0  0  0
 11 22  1  0  0  0  0
 12 13  2  0  0  0  0
 12 15  1  0  0  0  0
 13 14  1  0  0  0  0
 14 17  2  0  0  0  0
 14 32  1  0  0  0  0
 15 16  2  0  0  0  0
 16 17  1  0  0  0  0
 16 20  1  0  0  0  0
 17 18  1  0  0  0  0
 18 19  2  0  0  0  0
 19 20  1  0  0  0  0
 20 21  1  0  0  0  0
 22 23  2  0  0  0  0
 22 27  1  0  0  0  0
 23 24  1  0  0  0  0
 24 25  2  0  0  0  0
 25 26  1  0  0  0  0
 26 27  2  0  0  0  0
 27 28  1  0  0  0  0
 28 29  2  0  0  0  0
 28 30  2  0  0  0  0
 28 31  1  0  0  0  0
  2 33  1  0  0  0  0
  4 34  1  0  0  0  0
  6 35  1  0  0  0  0
  8 36  1  0  0  0  0
  9 37  1  0  0  0  0
 13 38  1  0  0  0  0
 15 39  1  0  0  0  0
 18 40  1  0  0  0  0
 19 41  1  0  0  0  0
 21 42  1  0  0  0  0
 21 43  1  0  0  0  0
 21 44  1  0  0  0  0
 23 45  1  0  0  0  0
 25 46  1  0  0  0  0
 26 47  1  0  0  0  0
 31 48  1  0  0  0  0
 31 49  1  0  0  0  0
 31 50  1  0  0  0  0
M  END
> <ID>
55

> <IC50[uM]>
0.016

$$$$
55
  -OEChem-05192314313D
 Structure written by MMmdl.
 50 54  0     0  0  0  0  0  0999 V2000
   91.6118   48.3366  266.6739 C   0  0  0  0  0  0  0  0  0  0  0  0
   91.9698   49.5336  267.2864 C   0  0  0  0  0  0  0  0  0  0  0  0
   93.2850   49.8006  267.6832 C   0  0  0  0  0  0  0  0  0  0  0  0
   92.5678   47.3462  266.4685 C   0  0  0  0  0  0  0  0  0  0  0  0
   93.8944   47.5432  266.9034 C   0  0  0  0  0  0  0  0  0  0  0  0
   94.2719   48.7828  267.5077 C   0  0  0  0  0  0  0  0  0  0  0  0
   95.5609   48.9661  267.9314 N   0  0  0  0  0  0  0  0  0  0  0  0
   96.4476   47.9576  267.7393 C   0  0  0  0  0  0  0  0  0  0  0  0
   96.0612   46.7472  267.1782 C   0  0  0  0  0  0  0  0  0  0  0  0
   94.7955   46.5340  266.7522 N   0  0  0  0  0  0  0  0  0  0  0  0
   90.2745   48.1296  266.3175 N   0  0  0  0  0  0  0  0  0  0  0  0
   93.5938   51.0998  268.3264 C   0  0  0  0  0  0  0  0  0  0  0  0
   94.5697   51.9459  267.7912 C   0  0  0  0  0  0  0  0  0  0  0  0
   94.8659   53.1774  268.3682 C   0  0  0  0  0  0  0  0  0  0  0  0
   92.8971   51.4508  269.4842 C   0  0  0  0  0  0  0  0  0  0  0  0
   93.2083   52.6701  270.0801 C   0  0  0  0  0  0  0  0  0  0  0  0
   94.1610   53.5698  269.5192 C   0  0  0  0  0  0  0  0  0  0  0  0
   94.1614   54.7332  270.3565 C   0  0  0  0  0  0  0  0  0  0  0  0
   93.2770   54.4957  271.3795 C   0  0  0  0  0  0  0  0  0  0  0  0
   92.7328   53.2443  271.2449 N   0  0  0  0  0  0  0  0  0  0  0  0
   91.8103   52.6326  272.1899 C   0  0  0  0  0  0  0  0  0  0  0  0
   89.7167   47.3494  265.2904 C   0  0  0  0  0  0  0  0  0  0  0  0
   90.4217   47.1254  264.0999 C   0  0  0  0  0  0  0  0  0  0  0  0
   89.9191   46.4337  263.0465 N   0  0  0  0  0  0  0  0  0  0  0  0
   88.6626   45.9393  263.1648 C   0  0  0  0  0  0  0  0  0  0  0  0
   87.8878   46.0972  264.3127 C   0  0  0  0  0  0  0  0  0  0  0  0
   88.4240   46.8050  265.3972 C   0  0  0  0  0  0  0  0  0  0  0  0
   87.4806   46.8913  266.9254 S   0  0  0  0  0  0  0  0  0  0  0  0
   86.1391   46.3662  266.6675 O   0  0  0  0  0  0  0  0  0  0  0  0
   87.6492   48.2412  267.4790 O   0  0  0  0  0  0  0  0  0  0  0  0
   88.3838   45.6765  268.0468 C   0  0  0  0  0  0  0  0  0  0  0  0
   95.8038   53.9727  267.8010 F   0  0  0  0  0  0  0  0  0  0  0  0
   91.2089   50.2799  267.4611 H   0  0  0  0  0  0  0  0  0  0  0  0
   92.2931   46.4255  265.9753 H   0  0  0  0  0  0  0  0  0  0  0  0
   97.2401   48.3607  267.0916 H   0  0  0  0  0  0  0  0  0  0  0  0
   96.8672   47.7210  268.7282 H   0  0  0  0  0  0  0  0  0  0  0  0
   96.7900   45.9563  267.0796 H   0  0  0  0  0  0  0  0  0  0  0  0
   95.1075   51.6360  266.9074 H   0  0  0  0  0  0  0  0  0  0  0  0
   92.1437   50.7999  269.9026 H   0  0  0  0  0  0  0  0  0  0  0  0
   94.7474   55.6285  270.2102 H   0  0  0  0  0  0  0  0  0  0  0  0
   93.0445   55.1912  272.1724 H   0  0  0  0  0  0  0  0  0  0  0  0
   91.6165   53.3304  273.0179 H   0  0  0  0  0  0  0  0  0  0  0  0
   90.8646   52.3980  271.6794 H   0  0  0  0  0  0  0  0  0  0  0  0
   92.2523   51.7067  272.5866 H   0  0  0  0  0  0  0  0  0  0  0  0
   91.4212   47.5259  264.0164 H   0  0  0  0  0  0  0  0  0  0  0  0
   88.2420   45.3976  262.3305 H   0  0  0  0  0  0  0  0  0  0  0  0
   86.8923   45.6817  264.3655 H   0  0  0  0  0  0  0  0  0  0  0  0
   87.8877   45.6441  269.0281 H   0  0  0  0  0  0  0  0  0  0  0  0
   88.3644   44.6747  267.5930 H   0  0  0  0  0  0  0  0  0  0  0  0
   89.4270   46.0012  268.1741 H   0  0  0  0  0  0  0  0  0  0  0  0
  1  2  1  0  0  0  0
  1  4  1  0  0  0  0
  1 11  2  0  0  0  0
  2  3  2  0  0  0  0
  3  6  1  0  0  0  0
  3 12  1  0  0  0  0
  4  5  2  0  0  0  0
  5  6  1  0  0  0  0
  5 10  1  0  0  0  0
  6  7  2  0  0  0  0
  7  8  1  0  0  0  0
  8  9  1  0  0  0  0
  9 10  2  0  0  0  0
 11 22  1  0  0  0  0
 12 13  2  0  0  0  0
 12 15  1  0  0  0  0
 13 14  1  0  0  0  0
 14 17  2  0  0  0  0
 14 32  1  0  0  0  0
 15 16  2  0  0  0  0
 16 17  1  0  0  0  0
 16 20  1  0  0  0  0
 17 18  1  0  0  0  0
 18 19  2  0  0  0  0
 19 20  1  0  0  0  0
 20 21  1  0  0  0  0
 22 23  2  0  0  0  0
 22 27  1  0  0  0  0
 23 24  1  0  0  0  0
 24 25  2  0  0  0  0
 25 26  1  0  0  0  0
 26 27  2  0  0  0  0
 27 28  1  0  0  0  0
 28 29  2  0  0  0  0
 28 30  2  0  0  0  0
 28 31  1  0  0  0  0
  2 33  1  0  0  0  0
  4 34  1  0  0  0  0
  8 35  1  0  0  0  0
  8 36  1  0  0  0  0
  9 37  1  0  0  0  0
 13 38  1  0  0  0  0
 15 39  1  0  0  0  0
 18 40  1  0  0  0  0
 19 41  1  0  0  0  0
 21 42  1  0  0  0  0
 21 43  1  0  0  0  0
 21 44  1  0  0  0  0
 23 45  1  0  0  0  0
 25 46  1  0  0  0  0
 26 47  1  0  0  0  0
 31 48  1  0  0  0  0
 31 49  1  0  0  0  0
 31 50  1  0  0  0  0
M  END
> <ID>
55

> <IC50[uM]>
0.016

$$$$
