26
  -OEChem-05192314313D
 Structure written by MMmdl.
 49 53  0     0  0  0  0  0  0999 V2000
   92.5604   47.3400  266.4645 C   0  0  0  0  0  0  0  0  0  0  0  0
   91.6033   48.3329  266.6623 C   0  0  0  0  0  0  0  0  0  0  0  0
   91.9663   49.5284  267.2832 C   0  0  0  0  0  0  0  0  0  0  0  0
   93.2809   49.8044  267.6816 C   0  0  0  0  0  0  0  0  0  0  0  0
   93.8899   47.5440  266.9028 C   0  0  0  0  0  0  0  0  0  0  0  0
   94.2681   48.7863  267.5062 C   0  0  0  0  0  0  0  0  0  0  0  0
   95.5594   48.9658  267.9286 N   0  0  0  0  0  0  0  0  0  0  0  0
   96.4477   47.9579  267.7347 C   0  0  0  0  0  0  0  0  0  0  0  0
   96.0603   46.7470  267.1752 C   0  0  0  0  0  0  0  0  0  0  0  0
   94.7960   46.5358  266.7511 N   0  0  0  0  0  0  0  0  0  0  0  0
   93.5929   51.1046  268.3258 C   0  0  0  0  0  0  0  0  0  0  0  0
   90.2555   48.1502  266.3103 N   0  0  0  0  0  0  0  0  0  0  0  0
   94.5796   51.9524  267.7970 C   0  0  0  0  0  0  0  0  0  0  0  0
   94.8788   53.1903  268.3744 C   0  0  0  0  0  0  0  0  0  0  0  0
   92.8914   51.4478  269.4799 C   0  0  0  0  0  0  0  0  0  0  0  0
   93.2168   52.6679  270.0678 C   0  0  0  0  0  0  0  0  0  0  0  0
   94.1655   53.5690  269.5124 C   0  0  0  0  0  0  0  0  0  0  0  0
   94.1737   54.7307  270.3540 C   0  0  0  0  0  0  0  0  0  0  0  0
   93.2736   54.4902  271.3621 C   0  0  0  0  0  0  0  0  0  0  0  0
   92.7449   53.2407  271.2292 N   0  0  0  0  0  0  0  0  0  0  0  0
   91.8199   52.6411  272.1840 C   0  0  0  0  0  0  0  0  0  0  0  0
   89.6226   47.3651  265.3242 C   0  0  0  0  0  0  0  0  0  0  0  0
   88.2891   46.8965  265.4752 C   0  0  0  0  0  0  0  0  0  0  0  0
   87.7104   46.1731  264.4151 C   0  0  0  0  0  0  0  0  0  0  0  0
   88.4109   45.9091  263.2455 C   0  0  0  0  0  0  0  0  0  0  0  0
   89.7142   46.3643  263.1048 C   0  0  0  0  0  0  0  0  0  0  0  0
   90.3116   47.0903  264.1333 C   0  0  0  0  0  0  0  0  0  0  0  0
   87.4576   47.1549  266.7210 C   0  0  0  0  0  0  0  0  0  0  0  0
   87.7195   48.0491  267.5179 O   0  0  0  0  0  0  0  0  0  0  0  0
   86.4083   46.3619  266.9362 N   0  0  0  0  0  0  0  0  0  0  0  0
   92.2877   46.4156  265.9771 H   0  0  0  0  0  0  0  0  0  0  0  0
   91.2032   50.2710  267.4640 H   0  0  0  0  0  0  0  0  0  0  0  0
   97.4790   48.1007  268.0220 H   0  0  0  0  0  0  0  0  0  0  0  0
   96.7881   45.9552  267.0770 H   0  0  0  0  0  0  0  0  0  0  0  0
   89.6192   48.6818  266.8694 H   0  0  0  0  0  0  0  0  0  0  0  0
   95.1236   51.6390  266.9182 H   0  0  0  0  0  0  0  0  0  0  0  0
   95.6378   53.8328  267.9530 H   0  0  0  0  0  0  0  0  0  0  0  0
   92.1340   50.8008  269.8972 H   0  0  0  0  0  0  0  0  0  0  0  0
   94.7712   55.6204  270.2206 H   0  0  0  0  0  0  0  0  0  0  0  0
   93.0211   55.1888  272.1460 H   0  0  0  0  0  0  0  0  0  0  0  0
   91.6347   53.3459  273.0080 H   0  0  0  0  0  0  0  0  0  0  0  0
   90.8704   52.4101  271.6789 H   0  0  0  0  0  0  0  0  0  0  0  0
   92.2567   51.7147  272.5852 H   0  0  0  0  0  0  0  0  0  0  0  0
   86.6965   45.8146  264.5139 H   0  0  0  0  0  0  0  0  0  0  0  0
   87.9428   45.3513  262.4479 H   0  0  0  0  0  0  0  0  0  0  0  0
   90.2648   46.1562  262.1993 H   0  0  0  0  0  0  0  0  0  0  0  0
   91.3234   47.4479  264.0115 H   0  0  0  0  0  0  0  0  0  0  0  0
   85.8371   46.4971  267.7458 H   0  0  0  0  0  0  0  0  0  0  0  0
   86.1922   45.6317  266.2880 H   0  0  0  0  0  0  0  0  0  0  0  0
  1  2  2  0  0  0  0
  1  5  1  0  0  0  0
  2  3  1  0  0  0  0
  2 12  1  0  0  0  0
  3  4  2  0  0  0  0
  4  6  1  0  0  0  0
  4 11  1  0  0  0  0
  5  6  2  0  0  0  0
  5 10  1  0  0  0  0
  6  7  1  0  0  0  0
  7  8  2  0  0  0  0
  8  9  1  0  0  0  0
  9 10  2  0  0  0  0
 11 13  2  0  0  0  0
 11 15  1  0  0  0  0
 12 22  1  0  0  0  0
 13 14  1  0  0  0  0
 14 17  2  0  0  0  0
 15 16  2  0  0  0  0
 16 17  1  0  0  0  0
 16 20  1  0  0  0  0
 17 18  1  0  0  0  0
 18 19  2  0  0  0  0
 19 20  1  0  0  0  0
 20 21  1  0  0  0  0
 22 23  2  0  0  0  0
 22 27  1  0  0  0  0
 23 24  1  0  0  0  0
 23 28  1  0  0  0  0
 24 25  2  0  0  0  0
 25 26  1  0  0  0  0
 26 27  2  0  0  0  0
 28 29  2  0  0  0  0
 28 30  1  0  0  0  0
  1 31  1  0  0  0  0
  3 32  1  0  0  0  0
  8 33  1  0  0  0  0
  9 34  1  0  0  0  0
 12 35  1  0  0  0  0
 13 36  1  0  0  0  0
 14 37  1  0  0  0  0
 15 38  1  0  0  0  0
 18 39  1  0  0  0  0
 19 40  1  0  0  0  0
 21 41  1  0  0  0  0
 21 42  1  0  0  0  0
 21 43  1  0  0  0  0
 24 44  1  0  0  0  0
 25 45  1  0  0  0  0
 26 46  1  0  0  0  0
 27 47  1  0  0  0  0
 30 48  1  0  0  0  0
 30 49  1  0  0  0  0
M  END
> <ID>
26

> <IC50[uM]>
0.19

$$$$
26
  -OEChem-05192314313D
 Structure written by MMmdl.
 49 53  0     0  0  0  0  0  0999 V2000
   92.5604   47.3400  266.4645 C   0  0  0  0  0  0  0  0  0  0  0  0
   91.6033   48.3329  266.6623 C   0  0  0  0  0  0  0  0  0  0  0  0
   91.9663   49.5284  267.2832 C   0  0  0  0  0  0  0  0  0  0  0  0
   93.2809   49.8044  267.6816 C   0  0  0  0  0  0  0  0  0  0  0  0
   93.8899   47.5440  266.9028 C   0  0  0  0  0  0  0  0  0  0  0  0
   94.2681   48.7863  267.5062 C   0  0  0  0  0  0  0  0  0  0  0  0
   95.5594   48.9658  267.9286 N   0  0  0  0  0  0  0  0  0  0  0  0
   96.4477   47.9579  267.7347 C   0  0  0  0  0  0  0  0  0  0  0  0
   96.0603   46.7470  267.1752 C   0  0  0  0  0  0  0  0  0  0  0  0
   94.7960   46.5358  266.7511 N   0  0  0  0  0  0  0  0  0  0  0  0
   93.5929   51.1046  268.3258 C   0  0  0  0  0  0  0  0  0  0  0  0
   90.2555   48.1502  266.3103 N   0  0  0  0  0  0  0  0  0  0  0  0
   94.5796   51.9524  267.7970 C   0  0  0  0  0  0  0  0  0  0  0  0
   94.8788   53.1903  268.3744 C   0  0  0  0  0  0  0  0  0  0  0  0
   92.8914   51.4478  269.4799 C   0  0  0  0  0  0  0  0  0  0  0  0
   93.2168   52.6679  270.0678 C   0  0  0  0  0  0  0  0  0  0  0  0
   94.1655   53.5690  269.5124 C   0  0  0  0  0  0  0  0  0  0  0  0
   94.1737   54.7307  270.3540 C   0  0  0  0  0  0  0  0  0  0  0  0
   93.2736   54.4902  271.3621 C   0  0  0  0  0  0  0  0  0  0  0  0
   92.7449   53.2407  271.2292 N   0  0  0  0  0  0  0  0  0  0  0  0
   91.8199   52.6411  272.1840 C   0  0  0  0  0  0  0  0  0  0  0  0
   89.6226   47.3651  265.3242 C   0  0  0  0  0  0  0  0  0  0  0  0
   88.2891   46.8965  265.4752 C   0  0  0  0  0  0  0  0  0  0  0  0
   87.7104   46.1731  264.4151 C   0  0  0  0  0  0  0  0  0  0  0  0
   88.4109   45.9091  263.2455 C   0  0  0  0  0  0  0  0  0  0  0  0
   89.7142   46.3643  263.1048 C   0  0  0  0  0  0  0  0  0  0  0  0
   90.3116   47.0903  264.1333 C   0  0  0  0  0  0  0  0  0  0  0  0
   87.4576   47.1549  266.7210 C   0  0  0  0  0  0  0  0  0  0  0  0
   87.7195   48.0491  267.5179 O   0  0  0  0  0  0  0  0  0  0  0  0
   86.4083   46.3619  266.9362 N   0  0  0  0  0  0  0  0  0  0  0  0
   92.2877   46.4156  265.9771 H   0  0  0  0  0  0  0  0  0  0  0  0
   91.2032   50.2710  267.4640 H   0  0  0  0  0  0  0  0  0  0  0  0
   97.4790   48.1007  268.0220 H   0  0  0  0  0  0  0  0  0  0  0  0
   96.7881   45.9552  267.0770 H   0  0  0  0  0  0  0  0  0  0  0  0
   89.6192   48.6818  266.8694 H   0  0  0  0  0  0  0  0  0  0  0  0
   95.1236   51.6390  266.9182 H   0  0  0  0  0  0  0  0  0  0  0  0
   95.6378   53.8328  267.9530 H   0  0  0  0  0  0  0  0  0  0  0  0
   92.1340   50.8008  269.8972 H   0  0  0  0  0  0  0  0  0  0  0  0
   94.7712   55.6204  270.2206 H   0  0  0  0  0  0  0  0  0  0  0  0
   93.0211   55.1888  272.1460 H   0  0  0  0  0  0  0  0  0  0  0  0
   91.6347   53.3459  273.0080 H   0  0  0  0  0  0  0  0  0  0  0  0
   90.8704   52.4101  271.6789 H   0  0  0  0  0  0  0  0  0  0  0  0
   92.2567   51.7147  272.5852 H   0  0  0  0  0  0  0  0  0  0  0  0
   86.6965   45.8146  264.5139 H   0  0  0  0  0  0  0  0  0  0  0  0
   87.9428   45.3513  262.4479 H   0  0  0  0  0  0  0  0  0  0  0  0
   90.2648   46.1562  262.1993 H   0  0  0  0  0  0  0  0  0  0  0  0
   91.3234   47.4479  264.0115 H   0  0  0  0  0  0  0  0  0  0  0  0
   87.0825   48.0423  268.2227 H   0  0  0  0  0  0  0  0  0  0  0  0
   85.9233   46.6022  267.7770 H   0  0  0  0  0  0  0  0  0  0  0  0
  1  2  2  0  0  0  0
  1  5  1  0  0  0  0
  2  3  1  0  0  0  0
  2 12  1  0  0  0  0
  3  4  2  0  0  0  0
  4  6  1  0  0  0  0
  4 11  1  0  0  0  0
  5  6  2  0  0  0  0
  5 10  1  0  0  0  0
  6  7  1  0  0  0  0
  7  8  2  0  0  0  0
  8  9  1  0  0  0  0
  9 10  2  0  0  0  0
 11 13  2  0  0  0  0
 11 15  1  0  0  0  0
 12 22  1  0  0  0  0
 13 14  1  0  0  0  0
 14 17  2  0  0  0  0
 15 16  2  0  0  0  0
 16 17  1  0  0  0  0
 16 20  1  0  0  0  0
 17 18  1  0  0  0  0
 18 19  2  0  0  0  0
 19 20  1  0  0  0  0
 20 21  1  0  0  0  0
 22 23  2  0  0  0  0
 22 27  1  0  0  0  0
 23 24  1  0  0  0  0
 23 28  1  0  0  0  0
 24 25  2  0  0  0  0
 25 26  1  0  0  0  0
 26 27  2  0  0  0  0
 28 29  1  0  0  0  0
 28 30  2  0  0  0  0
  1 31  1  0  0  0  0
  3 32  1  0  0  0  0
  8 33  1  0  0  0  0
  9 34  1  0  0  0  0
 12 35  1  0  0  0  0
 13 36  1  0  0  0  0
 14 37  1  0  0  0  0
 15 38  1  0  0  0  0
 18 39  1  0  0  0  0
 19 40  1  0  0  0  0
 21 41  1  0  0  0  0
 21 42  1  0  0  0  0
 21 43  1  0  0  0  0
 24 44  1  0  0  0  0
 25 45  1  0  0  0  0
 26 46  1  0  0  0  0
 27 47  1  0  0  0  0
 29 48  1  0  0  0  0
 30 49  1  0  0  0  0
M  END
> <ID>
26

> <IC50[uM]>
0.19

$$$$
26
  -OEChem-05192314313D
 Structure written by MMmdl.
 49 53  0     0  0  0  0  0  0999 V2000
   92.5604   47.3400  266.4645 C   0  0  0  0  0  0  0  0  0  0  0  0
   91.6033   48.3329  266.6623 C   0  0  0  0  0  0  0  0  0  0  0  0
   91.9663   49.5284  267.2832 C   0  0  0  0  0  0  0  0  0  0  0  0
   93.2809   49.8044  267.6816 C   0  0  0  0  0  0  0  0  0  0  0  0
   93.8899   47.5440  266.9028 C   0  0  0  0  0  0  0  0  0  0  0  0
   94.2681   48.7863  267.5062 C   0  0  0  0  0  0  0  0  0  0  0  0
   95.5594   48.9658  267.9286 N   0  0  0  0  0  0  0  0  0  0  0  0
   96.4477   47.9579  267.7347 C   0  0  0  0  0  0  0  0  0  0  0  0
   96.0603   46.7470  267.1752 C   0  0  0  0  0  0  0  0  0  0  0  0
   94.7960   46.5358  266.7511 N   0  0  0  0  0  0  0  0  0  0  0  0
   93.5929   51.1046  268.3258 C   0  0  0  0  0  0  0  0  0  0  0  0
   90.2555   48.1502  266.3103 N   0  0  0  0  0  0  0  0  0  0  0  0
   94.5796   51.9524  267.7970 C   0  0  0  0  0  0  0  0  0  0  0  0
   94.8788   53.1903  268.3744 C   0  0  0  0  0  0  0  0  0  0  0  0
   92.8914   51.4478  269.4799 C   0  0  0  0  0  0  0  0  0  0  0  0
   93.2168   52.6679  270.0678 C   0  0  0  0  0  0  0  0  0  0  0  0
   94.1655   53.5690  269.5124 C   0  0  0  0  0  0  0  0  0  0  0  0
   94.1737   54.7307  270.3540 C   0  0  0  0  0  0  0  0  0  0  0  0
   93.2736   54.4902  271.3621 C   0  0  0  0  0  0  0  0  0  0  0  0
   92.7449   53.2407  271.2292 N   0  0  0  0  0  0  0  0  0  0  0  0
   91.8199   52.6411  272.1840 C   0  0  0  0  0  0  0  0  0  0  0  0
   89.6226   47.3651  265.3242 C   0  0  0  0  0  0  0  0  0  0  0  0
   88.2891   46.8965  265.4752 C   0  0  0  0  0  0  0  0  0  0  0  0
   87.7104   46.1731  264.4151 C   0  0  0  0  0  0  0  0  0  0  0  0
   88.4109   45.9091  263.2455 C   0  0  0  0  0  0  0  0  0  0  0  0
   89.7142   46.3643  263.1048 C   0  0  0  0  0  0  0  0  0  0  0  0
   90.3116   47.0903  264.1333 C   0  0  0  0  0  0  0  0  0  0  0  0
   87.4576   47.1549  266.7210 C   0  0  0  0  0  0  0  0  0  0  0  0
   87.7195   48.0491  267.5179 O   0  0  0  0  0  0  0  0  0  0  0  0
   86.4083   46.3619  266.9362 N   0  0  0  0  0  0  0  0  0  0  0  0
   92.2877   46.4156  265.9771 H   0  0  0  0  0  0  0  0  0  0  0  0
   91.2032   50.2710  267.4640 H   0  0  0  0  0  0  0  0  0  0  0  0
   97.4790   48.1007  268.0220 H   0  0  0  0  0  0  0  0  0  0  0  0
   96.7881   45.9552  267.0770 H   0  0  0  0  0  0  0  0  0  0  0  0
   94.5313   45.6647  266.3374 H   0  0  0  0  0  0  0  0  0  0  0  0
   95.1236   51.6390  266.9182 H   0  0  0  0  0  0  0  0  0  0  0  0
   95.6378   53.8328  267.9530 H   0  0  0  0  0  0  0  0  0  0  0  0
   92.1340   50.8008  269.8972 H   0  0  0  0  0  0  0  0  0  0  0  0
   94.7712   55.6204  270.2206 H   0  0  0  0  0  0  0  0  0  0  0  0
   93.0211   55.1888  272.1460 H   0  0  0  0  0  0  0  0  0  0  0  0
   91.6347   53.3459  273.0080 H   0  0  0  0  0  0  0  0  0  0  0  0
   90.8704   52.4101  271.6789 H   0  0  0  0  0  0  0  0  0  0  0  0
   92.2567   51.7147  272.5852 H   0  0  0  0  0  0  0  0  0  0  0  0
   86.6965   45.8146  264.5139 H   0  0  0  0  0  0  0  0  0  0  0  0
   87.9428   45.3513  262.4479 H   0  0  0  0  0  0  0  0  0  0  0  0
   90.2648   46.1562  262.1993 H   0  0  0  0  0  0  0  0  0  0  0  0
   91.3234   47.4479  264.0115 H   0  0  0  0  0  0  0  0  0  0  0  0
   85.8371   46.4971  267.7458 H   0  0  0  0  0  0  0  0  0  0  0  0
   86.1922   45.6317  266.2880 H   0  0  0  0  0  0  0  0  0  0  0  0
  1  2  1  0  0  0  0
  1  5  2  0  0  0  0
  2  3  1  0  0  0  0
  2 12  2  0  0  0  0
  3  4  2  0  0  0  0
  4  6  1  0  0  0  0
  4 11  1  0  0  0  0
  5  6  1  0  0  0  0
  5 10  1  0  0  0  0
  6  7  2  0  0  0  0
  7  8  1  0  0  0  0
  8  9  2  0  0  0  0
  9 10  1  0  0  0  0
 11 13  2  0  0  0  0
 11 15  1  0  0  0  0
 12 22  1  0  0  0  0
 13 14  1  0  0  0  0
 14 17  2  0  0  0  0
 15 16  2  0  0  0  0
 16 17  1  0  0  0  0
 16 20  1  0  0  0  0
 17 18  1  0  0  0  0
 18 19  2  0  0  0  0
 19 20  1  0  0  0  0
 20 21  1  0  0  0  0
 22 23  2  0  0  0  0
 22 27  1  0  0  0  0
 23 24  1  0  0  0  0
 23 28  1  0  0  0  0
 24 25  2  0  0  0  0
 25 26  1  0  0  0  0
 26 27  2  0  0  0  0
 28 29  2  0  0  0  0
 28 30  1  0  0  0  0
  1 31  1  0  0  0  0
  3 32  1  0  0  0  0
  8 33  1  0  0  0  0
  9 34  1  0  0  0  0
 10 35  1  0  0  0  0
 13 36  1  0  0  0  0
 14 37  1  0  0  0  0
 15 38  1  0  0  0  0
 18 39  1  0  0  0  0
 19 40  1  0  0  0  0
 21 41  1  0  0  0  0
 21 42  1  0  0  0  0
 21 43  1  0  0  0  0
 24 44  1  0  0  0  0
 25 45  1  0  0  0  0
 26 46  1  0  0  0  0
 27 47  1  0  0  0  0
 30 48  1  0  0  0  0
 30 49  1  0  0  0  0
M  END
> <ID>
26

> <IC50[uM]>
0.19

$$$$
26
  -OEChem-05192314313D
 Structure written by MMmdl.
 49 53  0     0  0  0  0  0  0999 V2000
   92.5604   47.3400  266.4645 C   0  0  0  0  0  0  0  0  0  0  0  0
   91.6033   48.3329  266.6623 C   0  0  0  0  0  0  0  0  0  0  0  0
   91.9663   49.5284  267.2832 C   0  0  0  0  0  0  0  0  0  0  0  0
   93.2809   49.8044  267.6816 C   0  0  0  0  0  0  0  0  0  0  0  0
   93.8899   47.5440  266.9028 C   0  0  0  0  0  0  0  0  0  0  0  0
   94.2681   48.7863  267.5062 C   0  0  0  0  0  0  0  0  0  0  0  0
   95.5594   48.9658  267.9286 N   0  0  0  0  0  0  0  0  0  0  0  0
   96.4477   47.9579  267.7347 C   0  0  0  0  0  0  0  0  0  0  0  0
   96.0603   46.7470  267.1752 C   0  0  0  0  0  0  0  0  0  0  0  0
   94.7960   46.5358  266.7511 N   0  0  0  0  0  0  0  0  0  0  0  0
   93.5929   51.1046  268.3258 C   0  0  0  0  0  0  0  0  0  0  0  0
   90.2555   48.1502  266.3103 N   0  0  0  0  0  0  0  0  0  0  0  0
   94.5796   51.9524  267.7970 C   0  0  0  0  0  0  0  0  0  0  0  0
   94.8788   53.1903  268.3744 C   0  0  0  0  0  0  0  0  0  0  0  0
   92.8914   51.4478  269.4799 C   0  0  0  0  0  0  0  0  0  0  0  0
   93.2168   52.6679  270.0678 C   0  0  0  0  0  0  0  0  0  0  0  0
   94.1655   53.5690  269.5124 C   0  0  0  0  0  0  0  0  0  0  0  0
   94.1737   54.7307  270.3540 C   0  0  0  0  0  0  0  0  0  0  0  0
   93.2736   54.4902  271.3621 C   0  0  0  0  0  0  0  0  0  0  0  0
   92.7449   53.2407  271.2292 N   0  0  0  0  0  0  0  0  0  0  0  0
   91.8199   52.6411  272.1840 C   0  0  0  0  0  0  0  0  0  0  0  0
   89.6226   47.3651  265.3242 C   0  0  0  0  0  0  0  0  0  0  0  0
   88.2891   46.8965  265.4752 C   0  0  0  0  0  0  0  0  0  0  0  0
   87.7104   46.1731  264.4151 C   0  0  0  0  0  0  0  0  0  0  0  0
   88.4109   45.9091  263.2455 C   0  0  0  0  0  0  0  0  0  0  0  0
   89.7142   46.3643  263.1048 C   0  0  0  0  0  0  0  0  0  0  0  0
   90.3116   47.0903  264.1333 C   0  0  0  0  0  0  0  0  0  0  0  0
   87.4576   47.1549  266.7210 C   0  0  0  0  0  0  0  0  0  0  0  0
   87.7195   48.0491  267.5179 O   0  0  0  0  0  0  0  0  0  0  0  0
   86.4083   46.3619  266.9362 N   0  0  0  0  0  0  0  0  0  0  0  0
   92.2877   46.4156  265.9771 H   0  0  0  0  0  0  0  0  0  0  0  0
   91.2032   50.2710  267.4640 H   0  0  0  0  0  0  0  0  0  0  0  0
   97.4790   48.1007  268.0220 H   0  0  0  0  0  0  0  0  0  0  0  0
   96.7881   45.9552  267.0770 H   0  0  0  0  0  0  0  0  0  0  0  0
   94.5313   45.6647  266.3374 H   0  0  0  0  0  0  0  0  0  0  0  0
   95.1236   51.6390  266.9182 H   0  0  0  0  0  0  0  0  0  0  0  0
   95.6378   53.8328  267.9530 H   0  0  0  0  0  0  0  0  0  0  0  0
   92.1340   50.8008  269.8972 H   0  0  0  0  0  0  0  0  0  0  0  0
   94.7712   55.6204  270.2206 H   0  0  0  0  0  0  0  0  0  0  0  0
   93.0211   55.1888  272.1460 H   0  0  0  0  0  0  0  0  0  0  0  0
   91.6347   53.3459  273.0080 H   0  0  0  0  0  0  0  0  0  0  0  0
   90.8704   52.4101  271.6789 H   0  0  0  0  0  0  0  0  0  0  0  0
   92.2567   51.7147  272.5852 H   0  0  0  0  0  0  0  0  0  0  0  0
   86.6965   45.8146  264.5139 H   0  0  0  0  0  0  0  0  0  0  0  0
   87.9428   45.3513  262.4479 H   0  0  0  0  0  0  0  0  0  0  0  0
   90.2648   46.1562  262.1993 H   0  0  0  0  0  0  0  0  0  0  0  0
   91.3234   47.4479  264.0115 H   0  0  0  0  0  0  0  0  0  0  0  0
   87.0825   48.0423  268.2227 H   0  0  0  0  0  0  0  0  0  0  0  0
   85.9233   46.6022  267.7770 H   0  0  0  0  0  0  0  0  0  0  0  0
  1  2  1  0  0  0  0
  1  5  2  0  0  0  0
  2  3  1  0  0  0  0
  2 12  2  0  0  0  0
  3  4  2  0  0  0  0
  4  6  1  0  0  0  0
  4 11  1  0  0  0  0
  5  6  1  0  0  0  0
  5 10  1  0  0  0  0
  6  7  2  0  0  0  0
  7  8  1  0  0  0  0
  8  9  2  0  0  0  0
  9 10  1  0  0  0  0
 11 13  2  0  0  0  0
 11 15  1  0  0  0  0
 12 22  1  0  0  0  0
 13 14  1  0  0  0  0
 14 17  2  0  0  0  0
 15 16  2  0  0  0  0
 16 17  1  0  0  0  0
 16 20  1  0  0  0  0
 17 18  1  0  0  0  0
 18 19  2  0  0  0  0
 19 20  1  0  0  0  0
 20 21  1  0  0  0  0
 22 23  2  0  0  0  0
 22 27  1  0  0  0  0
 23 24  1  0  0  0  0
 23 28  1  0  0  0  0
 24 25  2  0  0  0  0
 25 26  1  0  0  0  0
 26 27  2  0  0  0  0
 28 29  1  0  0  0  0
 28 30  2  0  0  0  0
  1 31  1  0  0  0  0
  3 32  1  0  0  0  0
  8 33  1  0  0  0  0
  9 34  1  0  0  0  0
 10 35  1  0  0  0  0
 13 36  1  0  0  0  0
 14 37  1  0  0  0  0
 15 38  1  0  0  0  0
 18 39  1  0  0  0  0
 19 40  1  0  0  0  0
 21 41  1  0  0  0  0
 21 42  1  0  0  0  0
 21 43  1  0  0  0  0
 24 44  1  0  0  0  0
 25 45  1  0  0  0  0
 26 46  1  0  0  0  0
 27 47  1  0  0  0  0
 29 48  1  0  0  0  0
 30 49  1  0  0  0  0
M  END
> <ID>
26

> <IC50[uM]>
0.19

$$$$
26
  -OEChem-05192314313D
 Structure written by MMmdl.
 49 53  0     0  0  0  0  0  0999 V2000
   92.5604   47.3400  266.4645 C   0  0  0  0  0  0  0  0  0  0  0  0
   91.6033   48.3329  266.6623 C   0  0  0  0  0  0  0  0  0  0  0  0
   91.9663   49.5284  267.2832 C   0  0  0  0  0  0  0  0  0  0  0  0
   93.2809   49.8044  267.6816 C   0  0  0  0  0  0  0  0  0  0  0  0
   93.8899   47.5440  266.9028 C   0  0  0  0  0  0  0  0  0  0  0  0
   94.2681   48.7863  267.5062 C   0  0  0  0  0  0  0  0  0  0  0  0
   95.5594   48.9658  267.9286 N   0  0  0  0  0  0  0  0  0  0  0  0
   96.4477   47.9579  267.7347 C   0  0  0  0  0  0  0  0  0  0  0  0
   96.0603   46.7470  267.1752 C   0  0  0  0  0  0  0  0  0  0  0  0
   94.7960   46.5358  266.7511 N   0  0  0  0  0  0  0  0  0  0  0  0
   93.5929   51.1046  268.3258 C   0  0  0  0  0  0  0  0  0  0  0  0
   90.2555   48.1502  266.3103 N   0  0  0  0  0  0  0  0  0  0  0  0
   94.5796   51.9524  267.7970 C   0  0  0  0  0  0  0  0  0  0  0  0
   94.8788   53.1903  268.3744 C   0  0  0  0  0  0  0  0  0  0  0  0
   92.8914   51.4478  269.4799 C   0  0  0  0  0  0  0  0  0  0  0  0
   93.2168   52.6679  270.0678 C   0  0  0  0  0  0  0  0  0  0  0  0
   94.1655   53.5690  269.5124 C   0  0  0  0  0  0  0  0  0  0  0  0
   94.1737   54.7307  270.3540 C   0  0  0  0  0  0  0  0  0  0  0  0
   93.2736   54.4902  271.3621 C   0  0  0  0  0  0  0  0  0  0  0  0
   92.7449   53.2407  271.2292 N   0  0  0  0  0  0  0  0  0  0  0  0
   91.8199   52.6411  272.1840 C   0  0  0  0  0  0  0  0  0  0  0  0
   89.6226   47.3651  265.3242 C   0  0  0  0  0  0  0  0  0  0  0  0
   88.2891   46.8965  265.4752 C   0  0  0  0  0  0  0  0  0  0  0  0
   87.7104   46.1731  264.4151 C   0  0  0  0  0  0  0  0  0  0  0  0
   88.4109   45.9091  263.2455 C   0  0  0  0  0  0  0  0  0  0  0  0
   89.7142   46.3643  263.1048 C   0  0  0  0  0  0  0  0  0  0  0  0
   90.3116   47.0903  264.1333 C   0  0  0  0  0  0  0  0  0  0  0  0
   87.4576   47.1549  266.7210 C   0  0  0  0  0  0  0  0  0  0  0  0
   87.7195   48.0491  267.5179 O   0  0  0  0  0  0  0  0  0  0  0  0
   86.4083   46.3619  266.9362 N   0  0  0  0  0  0  0  0  0  0  0  0
   92.1924   46.4376  266.9747 H   0  0  0  0  0  0  0  0  0  0  0  0
   92.6076   47.1553  265.3812 H   0  0  0  0  0  0  0  0  0  0  0  0
   91.2032   50.2710  267.4640 H   0  0  0  0  0  0  0  0  0  0  0  0
   97.4790   48.1007  268.0220 H   0  0  0  0  0  0  0  0  0  0  0  0
   96.7881   45.9552  267.0770 H   0  0  0  0  0  0  0  0  0  0  0  0
   95.1236   51.6390  266.9182 H   0  0  0  0  0  0  0  0  0  0  0  0
   95.6378   53.8328  267.9530 H   0  0  0  0  0  0  0  0  0  0  0  0
   92.1340   50.8008  269.8972 H   0  0  0  0  0  0  0  0  0  0  0  0
   94.7712   55.6204  270.2206 H   0  0  0  0  0  0  0  0  0  0  0  0
   93.0211   55.1888  272.1460 H   0  0  0  0  0  0  0  0  0  0  0  0
   91.6347   53.3459  273.0080 H   0  0  0  0  0  0  0  0  0  0  0  0
   90.8704   52.4101  271.6789 H   0  0  0  0  0  0  0  0  0  0  0  0
   92.2567   51.7147  272.5852 H   0  0  0  0  0  0  0  0  0  0  0  0
   86.6965   45.8146  264.5139 H   0  0  0  0  0  0  0  0  0  0  0  0
   87.9428   45.3513  262.4479 H   0  0  0  0  0  0  0  0  0  0  0  0
   90.2648   46.1562  262.1993 H   0  0  0  0  0  0  0  0  0  0  0  0
   91.3234   47.4479  264.0115 H   0  0  0  0  0  0  0  0  0  0  0  0
   85.8371   46.4971  267.7458 H   0  0  0  0  0  0  0  0  0  0  0  0
   86.1922   45.6317  266.2880 H   0  0  0  0  0  0  0  0  0  0  0  0
  1  2  1  0  0  0  0
  1  5  1  0  0  0  0
  2  3  1  0  0  0  0
  2 12  2  0  0  0  0
  3  4  2  0  0  0  0
  4  6  1  0  0  0  0
  4 11  1  0  0  0  0
  5  6  2  0  0  0  0
  5 10  1  0  0  0  0
  6  7  1  0  0  0  0
  7  8  2  0  0  0  0
  8  9  1  0  0  0  0
  9 10  2  0  0  0  0
 11 13  2  0  0  0  0
 11 15  1  0  0  0  0
 12 22  1  0  0  0  0
 13 14  1  0  0  0  0
 14 17  2  0  0  0  0
 15 16  2  0  0  0  0
 16 17  1  0  0  0  0
 16 20  1  0  0  0  0
 17 18  1  0  0  0  0
 18 19  2  0  0  0  0
 19 20  1  0  0  0  0
 20 21  1  0  0  0  0
 22 23  2  0  0  0  0
 22 27  1  0  0  0  0
 23 24  1  0  0  0  0
 23 28  1  0  0  0  0
 24 25  2  0  0  0  0
 25 26  1  0  0  0  0
 26 27  2  0  0  0  0
 28 29  2  0  0  0  0
 28 30  1  0  0  0  0
  1 31  1  0  0  0  0
  1 32  1  0  0  0  0
  3 33  1  0  0  0  0
  8 34  1  0  0  0  0
  9 35  1  0  0  0  0
 13 36  1  0  0  0  0
 14 37  1  0  0  0  0
 15 38  1  0  0  0  0
 18 39  1  0  0  0  0
 19 40  1  0  0  0  0
 21 41  1  0  0  0  0
 21 42  1  0  0  0  0
 21 43  1  0  0  0  0
 24 44  1  0  0  0  0
 25 45  1  0  0  0  0
 26 46  1  0  0  0  0
 27 47  1  0  0  0  0
 30 48  1  0  0  0  0
 30 49  1  0  0  0  0
M  END
> <ID>
26

> <IC50[uM]>
0.19

$$$$
26
  -OEChem-05192314313D
 Structure written by MMmdl.
 49 53  0     0  0  0  0  0  0999 V2000
   92.5604   47.3400  266.4645 C   0  0  0  0  0  0  0  0  0  0  0  0
   91.6033   48.3329  266.6623 C   0  0  0  0  0  0  0  0  0  0  0  0
   91.9663   49.5284  267.2832 C   0  0  0  0  0  0  0  0  0  0  0  0
   93.2809   49.8044  267.6816 C   0  0  0  0  0  0  0  0  0  0  0  0
   93.8899   47.5440  266.9028 C   0  0  0  0  0  0  0  0  0  0  0  0
   94.2681   48.7863  267.5062 C   0  0  0  0  0  0  0  0  0  0  0  0
   95.5594   48.9658  267.9286 N   0  0  0  0  0  0  0  0  0  0  0  0
   96.4477   47.9579  267.7347 C   0  0  0  0  0  0  0  0  0  0  0  0
   96.0603   46.7470  267.1752 C   0  0  0  0  0  0  0  0  0  0  0  0
   94.7960   46.5358  266.7511 N   0  0  0  0  0  0  0  0  0  0  0  0
   93.5929   51.1046  268.3258 C   0  0  0  0  0  0  0  0  0  0  0  0
   90.2555   48.1502  266.3103 N   0  0  0  0  0  0  0  0  0  0  0  0
   94.5796   51.9524  267.7970 C   0  0  0  0  0  0  0  0  0  0  0  0
   94.8788   53.1903  268.3744 C   0  0  0  0  0  0  0  0  0  0  0  0
   92.8914   51.4478  269.4799 C   0  0  0  0  0  0  0  0  0  0  0  0
   93.2168   52.6679  270.0678 C   0  0  0  0  0  0  0  0  0  0  0  0
   94.1655   53.5690  269.5124 C   0  0  0  0  0  0  0  0  0  0  0  0
   94.1737   54.7307  270.3540 C   0  0  0  0  0  0  0  0  0  0  0  0
   93.2736   54.4902  271.3621 C   0  0  0  0  0  0  0  0  0  0  0  0
   92.7449   53.2407  271.2292 N   0  0  0  0  0  0  0  0  0  0  0  0
   91.8199   52.6411  272.1840 C   0  0  0  0  0  0  0  0  0  0  0  0
   89.6226   47.3651  265.3242 C   0  0  0  0  0  0  0  0  0  0  0  0
   88.2891   46.8965  265.4752 C   0  0  0  0  0  0  0  0  0  0  0  0
   87.7104   46.1731  264.4151 C   0  0  0  0  0  0  0  0  0  0  0  0
   88.4109   45.9091  263.2455 C   0  0  0  0  0  0  0  0  0  0  0  0
   89.7142   46.3643  263.1048 C   0  0  0  0  0  0  0  0  0  0  0  0
   90.3116   47.0903  264.1333 C   0  0  0  0  0  0  0  0  0  0  0  0
   87.4576   47.1549  266.7210 C   0  0  0  0  0  0  0  0  0  0  0  0
   87.7195   48.0491  267.5179 O   0  0  0  0  0  0  0  0  0  0  0  0
   86.4083   46.3619  266.9362 N   0  0  0  0  0  0  0  0  0  0  0  0
   92.1924   46.4376  266.9747 H   0  0  0  0  0  0  0  0  0  0  0  0
   92.6076   47.1553  265.3812 H   0  0  0  0  0  0  0  0  0  0  0  0
   91.2032   50.2710  267.4640 H   0  0  0  0  0  0  0  0  0  0  0  0
   97.4790   48.1007  268.0220 H   0  0  0  0  0  0  0  0  0  0  0  0
   96.7881   45.9552  267.0770 H   0  0  0  0  0  0  0  0  0  0  0  0
   95.1236   51.6390  266.9182 H   0  0  0  0  0  0  0  0  0  0  0  0
   95.6378   53.8328  267.9530 H   0  0  0  0  0  0  0  0  0  0  0  0
   92.1340   50.8008  269.8972 H   0  0  0  0  0  0  0  0  0  0  0  0
   94.7712   55.6204  270.2206 H   0  0  0  0  0  0  0  0  0  0  0  0
   93.0211   55.1888  272.1460 H   0  0  0  0  0  0  0  0  0  0  0  0
   91.6347   53.3459  273.0080 H   0  0  0  0  0  0  0  0  0  0  0  0
   90.8704   52.4101  271.6789 H   0  0  0  0  0  0  0  0  0  0  0  0
   92.2567   51.7147  272.5852 H   0  0  0  0  0  0  0  0  0  0  0  0
   86.6965   45.8146  264.5139 H   0  0  0  0  0  0  0  0  0  0  0  0
   87.9428   45.3513  262.4479 H   0  0  0  0  0  0  0  0  0  0  0  0
   90.2648   46.1562  262.1993 H   0  0  0  0  0  0  0  0  0  0  0  0
   91.3234   47.4479  264.0115 H   0  0  0  0  0  0  0  0  0  0  0  0
   87.0825   48.0423  268.2227 H   0  0  0  0  0  0  0  0  0  0  0  0
   85.9233   46.6022  267.7770 H   0  0  0  0  0  0  0  0  0  0  0  0
  1  2  1  0  0  0  0
  1  5  1  0  0  0  0
  2  3  1  0  0  0  0
  2 12  2  0  0  0  0
  3  4  2  0  0  0  0
  4  6  1  0  0  0  0
  4 11  1  0  0  0  0
  5  6  2  0  0  0  0
  5 10  1  0  0  0  0
  6  7  1  0  0  0  0
  7  8  2  0  0  0  0
  8  9  1  0  0  0  0
  9 10  2  0  0  0  0
 11 13  2  0  0  0  0
 11 15  1  0  0  0  0
 12 22  1  0  0  0  0
 13 14  1  0  0  0  0
 14 17  2  0  0  0  0
 15 16  2  0  0  0  0
 16 17  1  0  0  0  0
 16 20  1  0  0  0  0
 17 18  1  0  0  0  0
 18 19  2  0  0  0  0
 19 20  1  0  0  0  0
 20 21  1  0  0  0  0
 22 23  2  0  0  0  0
 22 27  1  0  0  0  0
 23 24  1  0  0  0  0
 23 28  1  0  0  0  0
 24 25  2  0  0  0  0
 25 26  1  0  0  0  0
 26 27  2  0  0  0  0
 28 29  1  0  0  0  0
 28 30  2  0  0  0  0
  1 31  1  0  0  0  0
  1 32  1  0  0  0  0
  3 33  1  0  0  0  0
  8 34  1  0  0  0  0
  9 35  1  0  0  0  0
 13 36  1  0  0  0  0
 14 37  1  0  0  0  0
 15 38  1  0  0  0  0
 18 39  1  0  0  0  0
 19 40  1  0  0  0  0
 21 41  1  0  0  0  0
 21 42  1  0  0  0  0
 21 43  1  0  0  0  0
 24 44  1  0  0  0  0
 25 45  1  0  0  0  0
 26 46  1  0  0  0  0
 27 47  1  0  0  0  0
 29 48  1  0  0  0  0
 30 49  1  0  0  0  0
M  END
> <ID>
26

> <IC50[uM]>
0.19

$$$$
26
  -OEChem-05192314313D
 Structure written by MMmdl.
 49 53  0     0  0  0  0  0  0999 V2000
   92.5604   47.3400  266.4645 C   0  0  0  0  0  0  0  0  0  0  0  0
   91.6033   48.3329  266.6623 C   0  0  0  0  0  0  0  0  0  0  0  0
   91.9663   49.5284  267.2832 C   0  0  0  0  0  0  0  0  0  0  0  0
   93.2809   49.8044  267.6816 C   0  0  0  0  0  0  0  0  0  0  0  0
   93.8899   47.5440  266.9028 C   0  0  0  0  0  0  0  0  0  0  0  0
   94.2681   48.7863  267.5062 C   0  0  0  0  0  0  0  0  0  0  0  0
   95.5594   48.9658  267.9286 N   0  0  0  0  0  0  0  0  0  0  0  0
   96.4477   47.9579  267.7347 C   0  0  0  0  0  0  0  0  0  0  0  0
   96.0603   46.7470  267.1752 C   0  0  0  0  0  0  0  0  0  0  0  0
   94.7960   46.5358  266.7511 N   0  0  0  0  0  0  0  0  0  0  0  0
   93.5929   51.1046  268.3258 C   0  0  0  0  0  0  0  0  0  0  0  0
   90.2555   48.1502  266.3103 N   0  0  0  0  0  0  0  0  0  0  0  0
   94.5796   51.9524  267.7970 C   0  0  0  0  0  0  0  0  0  0  0  0
   94.8788   53.1903  268.3744 C   0  0  0  0  0  0  0  0  0  0  0  0
   92.8914   51.4478  269.4799 C   0  0  0  0  0  0  0  0  0  0  0  0
   93.2168   52.6679  270.0678 C   0  0  0  0  0  0  0  0  0  0  0  0
   94.1655   53.5690  269.5124 C   0  0  0  0  0  0  0  0  0  0  0  0
   94.1737   54.7307  270.3540 C   0  0  0  0  0  0  0  0  0  0  0  0
   93.2736   54.4902  271.3621 C   0  0  0  0  0  0  0  0  0  0  0  0
   92.7449   53.2407  271.2292 N   0  0  0  0  0  0  0  0  0  0  0  0
   91.8199   52.6411  272.1840 C   0  0  0  0  0  0  0  0  0  0  0  0
   89.6226   47.3651  265.3242 C   0  0  0  0  0  0  0  0  0  0  0  0
   88.2891   46.8965  265.4752 C   0  0  0  0  0  0  0  0  0  0  0  0
   87.7104   46.1731  264.4151 C   0  0  0  0  0  0  0  0  0  0  0  0
   88.4109   45.9091  263.2455 C   0  0  0  0  0  0  0  0  0  0  0  0
   89.7142   46.3643  263.1048 C   0  0  0  0  0  0  0  0  0  0  0  0
   90.3116   47.0903  264.1333 C   0  0  0  0  0  0  0  0  0  0  0  0
   87.4576   47.1549  266.7210 C   0  0  0  0  0  0  0  0  0  0  0  0
   87.7195   48.0491  267.5179 O   0  0  0  0  0  0  0  0  0  0  0  0
   86.4083   46.3619  266.9362 N   0  0  0  0  0  0  0  0  0  0  0  0
   92.2877   46.4156  265.9771 H   0  0  0  0  0  0  0  0  0  0  0  0
   91.6840   50.3316  266.5866 H   0  0  0  0  0  0  0  0  0  0  0  0
   91.3512   49.5986  268.1924 H   0  0  0  0  0  0  0  0  0  0  0  0
   97.4790   48.1007  268.0220 H   0  0  0  0  0  0  0  0  0  0  0  0
   96.7881   45.9552  267.0770 H   0  0  0  0  0  0  0  0  0  0  0  0
   95.1236   51.6390  266.9182 H   0  0  0  0  0  0  0  0  0  0  0  0
   95.6378   53.8328  267.9530 H   0  0  0  0  0  0  0  0  0  0  0  0
   92.1340   50.8008  269.8972 H   0  0  0  0  0  0  0  0  0  0  0  0
   94.7712   55.6204  270.2206 H   0  0  0  0  0  0  0  0  0  0  0  0
   93.0211   55.1888  272.1460 H   0  0  0  0  0  0  0  0  0  0  0  0
   91.6347   53.3459  273.0080 H   0  0  0  0  0  0  0  0  0  0  0  0
   90.8704   52.4101  271.6789 H   0  0  0  0  0  0  0  0  0  0  0  0
   92.2567   51.7147  272.5852 H   0  0  0  0  0  0  0  0  0  0  0  0
   86.6965   45.8146  264.5139 H   0  0  0  0  0  0  0  0  0  0  0  0
   87.9428   45.3513  262.4479 H   0  0  0  0  0  0  0  0  0  0  0  0
   90.2648   46.1562  262.1993 H   0  0  0  0  0  0  0  0  0  0  0  0
   91.3234   47.4479  264.0115 H   0  0  0  0  0  0  0  0  0  0  0  0
   85.8371   46.4971  267.7458 H   0  0  0  0  0  0  0  0  0  0  0  0
   86.1922   45.6317  266.2880 H   0  0  0  0  0  0  0  0  0  0  0  0
  1  2  1  0  0  0  0
  1  5  2  0  0  0  0
  2  3  1  0  0  0  0
  2 12  2  0  0  0  0
  3  4  1  0  0  0  0
  4  6  2  0  0  0  0
  4 11  1  0  0  0  0
  5  6  1  0  0  0  0
  5 10  1  0  0  0  0
  6  7  1  0  0  0  0
  7  8  2  0  0  0  0
  8  9  1  0  0  0  0
  9 10  2  0  0  0  0
 11 13  2  0  0  0  0
 11 15  1  0  0  0  0
 12 22  1  0  0  0  0
 13 14  1  0  0  0  0
 14 17  2  0  0  0  0
 15 16  2  0  0  0  0
 16 17  1  0  0  0  0
 16 20  1  0  0  0  0
 17 18  1  0  0  0  0
 18 19  2  0  0  0  0
 19 20  1  0  0  0  0
 20 21  1  0  0  0  0
 22 23  2  0  0  0  0
 22 27  1  0  0  0  0
 23 24  1  0  0  0  0
 23 28  1  0  0  0  0
 24 25  2  0  0  0  0
 25 26  1  0  0  0  0
 26 27  2  0  0  0  0
 28 29  2  0  0  0  0
 28 30  1  0  0  0  0
  1 31  1  0  0  0  0
  3 32  1  0  0  0  0
  3 33  1  0  0  0  0
  8 34  1  0  0  0  0
  9 35  1  0  0  0  0
 13 36  1  0  0  0  0
 14 37  1  0  0  0  0
 15 38  1  0  0  0  0
 18 39  1  0  0  0  0
 19 40  1  0  0  0  0
 21 41  1  0  0  0  0
 21 42  1  0  0  0  0
 21 43  1  0  0  0  0
 24 44  1  0  0  0  0
 25 45  1  0  0  0  0
 26 46  1  0  0  0  0
 27 47  1  0  0  0  0
 30 48  1  0  0  0  0
 30 49  1  0  0  0  0
M  END
> <ID>
26

> <IC50[uM]>
0.19

$$$$
26
  -OEChem-05192314313D
 Structure written by MMmdl.
 49 53  0     0  0  0  0  0  0999 V2000
   92.5604   47.3400  266.4645 C   0  0  0  0  0  0  0  0  0  0  0  0
   91.6033   48.3329  266.6623 C   0  0  0  0  0  0  0  0  0  0  0  0
   91.9663   49.5284  267.2832 C   0  0  0  0  0  0  0  0  0  0  0  0
   93.2809   49.8044  267.6816 C   0  0  0  0  0  0  0  0  0  0  0  0
   93.8899   47.5440  266.9028 C   0  0  0  0  0  0  0  0  0  0  0  0
   94.2681   48.7863  267.5062 C   0  0  0  0  0  0  0  0  0  0  0  0
   95.5594   48.9658  267.9286 N   0  0  0  0  0  0  0  0  0  0  0  0
   96.4477   47.9579  267.7347 C   0  0  0  0  0  0  0  0  0  0  0  0
   96.0603   46.7470  267.1752 C   0  0  0  0  0  0  0  0  0  0  0  0
   94.7960   46.5358  266.7511 N   0  0  0  0  0  0  0  0  0  0  0  0
   93.5929   51.1046  268.3258 C   0  0  0  0  0  0  0  0  0  0  0  0
   90.2555   48.1502  266.3103 N   0  0  0  0  0  0  0  0  0  0  0  0
   94.5796   51.9524  267.7970 C   0  0  0  0  0  0  0  0  0  0  0  0
   94.8788   53.1903  268.3744 C   0  0  0  0  0  0  0  0  0  0  0  0
   92.8914   51.4478  269.4799 C   0  0  0  0  0  0  0  0  0  0  0  0
   93.2168   52.6679  270.0678 C   0  0  0  0  0  0  0  0  0  0  0  0
   94.1655   53.5690  269.5124 C   0  0  0  0  0  0  0  0  0  0  0  0
   94.1737   54.7307  270.3540 C   0  0  0  0  0  0  0  0  0  0  0  0
   93.2736   54.4902  271.3621 C   0  0  0  0  0  0  0  0  0  0  0  0
   92.7449   53.2407  271.2292 N   0  0  0  0  0  0  0  0  0  0  0  0
   91.8199   52.6411  272.1840 C   0  0  0  0  0  0  0  0  0  0  0  0
   89.6226   47.3651  265.3242 C   0  0  0  0  0  0  0  0  0  0  0  0
   88.2891   46.8965  265.4752 C   0  0  0  0  0  0  0  0  0  0  0  0
   87.7104   46.1731  264.4151 C   0  0  0  0  0  0  0  0  0  0  0  0
   88.4109   45.9091  263.2455 C   0  0  0  0  0  0  0  0  0  0  0  0
   89.7142   46.3643  263.1048 C   0  0  0  0  0  0  0  0  0  0  0  0
   90.3116   47.0903  264.1333 C   0  0  0  0  0  0  0  0  0  0  0  0
   87.4576   47.1549  266.7210 C   0  0  0  0  0  0  0  0  0  0  0  0
   87.7195   48.0491  267.5179 O   0  0  0  0  0  0  0  0  0  0  0  0
   86.4083   46.3619  266.9362 N   0  0  0  0  0  0  0  0  0  0  0  0
   92.2877   46.4156  265.9771 H   0  0  0  0  0  0  0  0  0  0  0  0
   91.6840   50.3316  266.5866 H   0  0  0  0  0  0  0  0  0  0  0  0
   91.3512   49.5986  268.1924 H   0  0  0  0  0  0  0  0  0  0  0  0
   97.4790   48.1007  268.0220 H   0  0  0  0  0  0  0  0  0  0  0  0
   96.7881   45.9552  267.0770 H   0  0  0  0  0  0  0  0  0  0  0  0
   95.1236   51.6390  266.9182 H   0  0  0  0  0  0  0  0  0  0  0  0
   95.6378   53.8328  267.9530 H   0  0  0  0  0  0  0  0  0  0  0  0
   92.1340   50.8008  269.8972 H   0  0  0  0  0  0  0  0  0  0  0  0
   94.7712   55.6204  270.2206 H   0  0  0  0  0  0  0  0  0  0  0  0
   93.0211   55.1888  272.1460 H   0  0  0  0  0  0  0  0  0  0  0  0
   91.6347   53.3459  273.0080 H   0  0  0  0  0  0  0  0  0  0  0  0
   90.8704   52.4101  271.6789 H   0  0  0  0  0  0  0  0  0  0  0  0
   92.2567   51.7147  272.5852 H   0  0  0  0  0  0  0  0  0  0  0  0
   86.6965   45.8146  264.5139 H   0  0  0  0  0  0  0  0  0  0  0  0
   87.9428   45.3513  262.4479 H   0  0  0  0  0  0  0  0  0  0  0  0
   90.2648   46.1562  262.1993 H   0  0  0  0  0  0  0  0  0  0  0  0
   91.3234   47.4479  264.0115 H   0  0  0  0  0  0  0  0  0  0  0  0
   87.0825   48.0423  268.2227 H   0  0  0  0  0  0  0  0  0  0  0  0
   85.9233   46.6022  267.7770 H   0  0  0  0  0  0  0  0  0  0  0  0
  1  2  1  0  0  0  0
  1  5  2  0  0  0  0
  2  3  1  0  0  0  0
  2 12  2  0  0  0  0
  3  4  1  0  0  0  0
  4  6  2  0  0  0  0
  4 11  1  0  0  0  0
  5  6  1  0  0  0  0
  5 10  1  0  0  0  0
  6  7  1  0  0  0  0
  7  8  2  0  0  0  0
  8  9  1  0  0  0  0
  9 10  2  0  0  0  0
 11 13  2  0  0  0  0
 11 15  1  0  0  0  0
 12 22  1  0  0  0  0
 13 14  1  0  0  0  0
 14 17  2  0  0  0  0
 15 16  2  0  0  0  0
 16 17  1  0  0  0  0
 16 20  1  0  0  0  0
 17 18  1  0  0  0  0
 18 19  2  0  0  0  0
 19 20  1  0  0  0  0
 20 21  1  0  0  0  0
 22 23  2  0  0  0  0
 22 27  1  0  0  0  0
 23 24  1  0  0  0  0
 23 28  1  0  0  0  0
 24 25  2  0  0  0  0
 25 26  1  0  0  0  0
 26 27  2  0  0  0  0
 28 29  1  0  0  0  0
 28 30  2  0  0  0  0
  1 31  1  0  0  0  0
  3 32  1  0  0  0  0
  3 33  1  0  0  0  0
  8 34  1  0  0  0  0
  9 35  1  0  0  0  0
 13 36  1  0  0  0  0
 14 37  1  0  0  0  0
 15 38  1  0  0  0  0
 18 39  1  0  0  0  0
 19 40  1  0  0  0  0
 21 41  1  0  0  0  0
 21 42  1  0  0  0  0
 21 43  1  0  0  0  0
 24 44  1  0  0  0  0
 25 45  1  0  0  0  0
 26 46  1  0  0  0  0
 27 47  1  0  0  0  0
 29 48  1  0  0  0  0
 30 49  1  0  0  0  0
M  END
> <ID>
26

> <IC50[uM]>
0.19

$$$$
26
  -OEChem-05192314313D
 Structure written by MMmdl.
 49 53  0     1  0  0  0  0  0999 V2000
   92.5604   47.3400  266.4645 C   0  0  0  0  0  0  0  0  0  0  0  0
   91.6033   48.3329  266.6623 C   0  0  0  0  0  0  0  0  0  0  0  0
   91.9663   49.5284  267.2832 C   0  0  0  0  0  0  0  0  0  0  0  0
   93.2809   49.8044  267.6816 C   0  0  0  0  0  0  0  0  0  0  0  0
   93.8899   47.5440  266.9028 C   0  0  0  0  0  0  0  0  0  0  0  0
   94.2681   48.7863  267.5062 C   0  0  0  0  0  0  0  0  0  0  0  0
   95.5594   48.9658  267.9286 N   0  0  0  0  0  0  0  0  0  0  0  0
   96.4477   47.9579  267.7347 C   0  0  0  0  0  0  0  0  0  0  0  0
   96.0603   46.7470  267.1752 C   0  0  0  0  0  0  0  0  0  0  0  0
   94.7960   46.5358  266.7511 N   0  0  0  0  0  0  0  0  0  0  0  0
   93.5929   51.1046  268.3258 C   0  0  0  0  0  0  0  0  0  0  0  0
   90.2555   48.1502  266.3103 N   0  0  0  0  0  0  0  0  0  0  0  0
   94.5796   51.9524  267.7970 C   0  0  0  0  0  0  0  0  0  0  0  0
   94.8788   53.1903  268.3744 C   0  0  0  0  0  0  0  0  0  0  0  0
   92.8914   51.4478  269.4799 C   0  0  0  0  0  0  0  0  0  0  0  0
   93.2168   52.6679  270.0678 C   0  0  0  0  0  0  0  0  0  0  0  0
   94.1655   53.5690  269.5124 C   0  0  0  0  0  0  0  0  0  0  0  0
   94.1737   54.7307  270.3540 C   0  0  0  0  0  0  0  0  0  0  0  0
   93.2736   54.4902  271.3621 C   0  0  0  0  0  0  0  0  0  0  0  0
   92.7449   53.2407  271.2292 N   0  0  0  0  0  0  0  0  0  0  0  0
   91.8199   52.6411  272.1840 C   0  0  0  0  0  0  0  0  0  0  0  0
   89.6226   47.3651  265.3242 C   0  0  0  0  0  0  0  0  0  0  0  0
   88.2891   46.8965  265.4752 C   0  0  3  0  0  0  0  0  0  0  0  0
   87.7104   46.1731  264.4151 C   0  0  0  0  0  0  0  0  0  0  0  0
   88.4109   45.9091  263.2455 C   0  0  0  0  0  0  0  0  0  0  0  0
   89.7142   46.3643  263.1048 C   0  0  0  0  0  0  0  0  0  0  0  0
   90.3116   47.0903  264.1333 C   0  0  0  0  0  0  0  0  0  0  0  0
   87.4576   47.1549  266.7210 C   0  0  0  0  0  0  0  0  0  0  0  0
   87.7195   48.0491  267.5179 O   0  0  0  0  0  0  0  0  0  0  0  0
   86.4083   46.3619  266.9362 N   0  0  0  0  0  0  0  0  0  0  0  0
   92.2877   46.4156  265.9771 H   0  0  0  0  0  0  0  0  0  0  0  0
   91.2032   50.2710  267.4640 H   0  0  0  0  0  0  0  0  0  0  0  0
   97.4790   48.1007  268.0220 H   0  0  0  0  0  0  0  0  0  0  0  0
   96.7881   45.9552  267.0770 H   0  0  0  0  0  0  0  0  0  0  0  0
   95.1236   51.6390  266.9182 H   0  0  0  0  0  0  0  0  0  0  0  0
   95.6378   53.8328  267.9530 H   0  0  0  0  0  0  0  0  0  0  0  0
   92.1340   50.8008  269.8972 H   0  0  0  0  0  0  0  0  0  0  0  0
   94.7712   55.6204  270.2206 H   0  0  0  0  0  0  0  0  0  0  0  0
   93.0211   55.1888  272.1460 H   0  0  0  0  0  0  0  0  0  0  0  0
   91.6347   53.3459  273.0080 H   0  0  0  0  0  0  0  0  0  0  0  0
   90.8704   52.4101  271.6789 H   0  0  0  0  0  0  0  0  0  0  0  0
   92.2567   51.7147  272.5852 H   0  0  0  0  0  0  0  0  0  0  0  0
   88.6637   45.9603  265.9149 H   0  0  0  0  0  0  0  0  0  0  0  0
   86.6965   45.8146  264.5139 H   0  0  0  0  0  0  0  0  0  0  0  0
   87.9428   45.3513  262.4479 H   0  0  0  0  0  0  0  0  0  0  0  0
   90.2648   46.1562  262.1993 H   0  0  0  0  0  0  0  0  0  0  0  0
   91.3234   47.4479  264.0115 H   0  0  0  0  0  0  0  0  0  0  0  0
   85.8371   46.4971  267.7458 H   0  0  0  0  0  0  0  0  0  0  0  0
   86.1922   45.6317  266.2880 H   0  0  0  0  0  0  0  0  0  0  0  0
  1  2  2  0  0  0  0
  1  5  1  0  0  0  0
  2  3  1  0  0  0  0
  2 12  1  0  0  0  0
  3  4  2  0  0  0  0
  4  6  1  0  0  0  0
  4 11  1  0  0  0  0
  5  6  2  0  0  0  0
  5 10  1  0  0  0  0
  6  7  1  0  0  0  0
  7  8  2  0  0  0  0
  8  9  1  0  0  0  0
  9 10  2  0  0  0  0
 11 13  2  0  0  0  0
 11 15  1  0  0  0  0
 12 22  2  0  0  0  0
 13 14  1  0  0  0  0
 14 17  2  0  0  0  0
 15 16  2  0  0  0  0
 16 17  1  0  0  0  0
 16 20  1  0  0  0  0
 17 18  1  0  0  0  0
 18 19  2  0  0  0  0
 19 20  1  0  0  0  0
 20 21  1  0  0  0  0
 22 23  1  0  0  0  0
 22 27  1  0  0  0  0
 23 24  1  0  0  0  0
 23 28  1  0  0  0  0
 24 25  2  0  0  0  0
 25 26  1  0  0  0  0
 26 27  2  0  0  0  0
 28 29  2  0  0  0  0
 28 30  1  0  0  0  0
  1 31  1  0  0  0  0
  3 32  1  0  0  0  0
  8 33  1  0  0  0  0
  9 34  1  0  0  0  0
 13 35  1  0  0  0  0
 14 36  1  0  0  0  0
 15 37  1  0  0  0  0
 18 38  1  0  0  0  0
 19 39  1  0  0  0  0
 21 40  1  0  0  0  0
 21 41  1  0  0  0  0
 21 42  1  0  0  0  0
 23 43  1  0  0  0  0
 24 44  1  0  0  0  0
 25 45  1  0  0  0  0
 26 46  1  0  0  0  0
 27 47  1  0  0  0  0
 30 48  1  0  0  0  0
 30 49  1  0  0  0  0
M  END
> <ID>
26

> <IC50[uM]>
0.19

$$$$
26
  -OEChem-05192314313D
 Structure written by MMmdl.
 49 53  0     0  0  0  0  0  0999 V2000
   92.5604   47.3400  266.4645 C   0  0  0  0  0  0  0  0  0  0  0  0
   91.6033   48.3329  266.6623 C   0  0  0  0  0  0  0  0  0  0  0  0
   91.9663   49.5284  267.2832 C   0  0  0  0  0  0  0  0  0  0  0  0
   93.2809   49.8044  267.6816 C   0  0  0  0  0  0  0  0  0  0  0  0
   93.8899   47.5440  266.9028 C   0  0  0  0  0  0  0  0  0  0  0  0
   94.2681   48.7863  267.5062 C   0  0  0  0  0  0  0  0  0  0  0  0
   95.5594   48.9658  267.9286 N   0  0  0  0  0  0  0  0  0  0  0  0
   96.4477   47.9579  267.7347 C   0  0  0  0  0  0  0  0  0  0  0  0
   96.0603   46.7470  267.1752 C   0  0  0  0  0  0  0  0  0  0  0  0
   94.7960   46.5358  266.7511 N   0  0  0  0  0  0  0  0  0  0  0  0
   93.5929   51.1046  268.3258 C   0  0  0  0  0  0  0  0  0  0  0  0
   90.2555   48.1502  266.3103 N   0  0  0  0  0  0  0  0  0  0  0  0
   94.5796   51.9524  267.7970 C   0  0  0  0  0  0  0  0  0  0  0  0
   94.8788   53.1903  268.3744 C   0  0  0  0  0  0  0  0  0  0  0  0
   92.8914   51.4478  269.4799 C   0  0  0  0  0  0  0  0  0  0  0  0
   93.2168   52.6679  270.0678 C   0  0  0  0  0  0  0  0  0  0  0  0
   94.1655   53.5690  269.5124 C   0  0  0  0  0  0  0  0  0  0  0  0
   94.1737   54.7307  270.3540 C   0  0  0  0  0  0  0  0  0  0  0  0
   93.2736   54.4902  271.3621 C   0  0  0  0  0  0  0  0  0  0  0  0
   92.7449   53.2407  271.2292 N   0  0  0  0  0  0  0  0  0  0  0  0
   91.8199   52.6411  272.1840 C   0  0  0  0  0  0  0  0  0  0  0  0
   89.6226   47.3651  265.3242 C   0  0  0  0  0  0  0  0  0  0  0  0
   88.2891   46.8965  265.4752 C   0  0  0  0  0  0  0  0  0  0  0  0
   87.7104   46.1731  264.4151 C   0  0  0  0  0  0  0  0  0  0  0  0
   88.4109   45.9091  263.2455 C   0  0  0  0  0  0  0  0  0  0  0  0
   89.7142   46.3643  263.1048 C   0  0  0  0  0  0  0  0  0  0  0  0
   90.3116   47.0903  264.1333 C   0  0  0  0  0  0  0  0  0  0  0  0
   87.4576   47.1549  266.7210 C   0  0  0  0  0  0  0  0  0  0  0  0
   87.7195   48.0491  267.5179 O   0  0  0  0  0  0  0  0  0  0  0  0
   86.4083   46.3619  266.9362 N   0  0  0  0  0  0  0  0  0  0  0  0
   92.2877   46.4156  265.9771 H   0  0  0  0  0  0  0  0  0  0  0  0
   91.2032   50.2710  267.4640 H   0  0  0  0  0  0  0  0  0  0  0  0
   97.4790   48.1007  268.0220 H   0  0  0  0  0  0  0  0  0  0  0  0
   96.7881   45.9552  267.0770 H   0  0  0  0  0  0  0  0  0  0  0  0
   95.1236   51.6390  266.9182 H   0  0  0  0  0  0  0  0  0  0  0  0
   95.6378   53.8328  267.9530 H   0  0  0  0  0  0  0  0  0  0  0  0
   92.1340   50.8008  269.8972 H   0  0  0  0  0  0  0  0  0  0  0  0
   94.7712   55.6204  270.2206 H   0  0  0  0  0  0  0  0  0  0  0  0
   93.0211   55.1888  272.1460 H   0  0  0  0  0  0  0  0  0  0  0  0
   91.6347   53.3459  273.0080 H   0  0  0  0  0  0  0  0  0  0  0  0
   90.8704   52.4101  271.6789 H   0  0  0  0  0  0  0  0  0  0  0  0
   92.2567   51.7147  272.5852 H   0  0  0  0  0  0  0  0  0  0  0  0
   86.6965   45.8146  264.5139 H   0  0  0  0  0  0  0  0  0  0  0  0
   88.4415   44.8153  263.1325 H   0  0  0  0  0  0  0  0  0  0  0  0
   87.8298   46.3468  262.4205 H   0  0  0  0  0  0  0  0  0  0  0  0
   90.2648   46.1562  262.1993 H   0  0  0  0  0  0  0  0  0  0  0  0
   91.3234   47.4479  264.0115 H   0  0  0  0  0  0  0  0  0  0  0  0
   85.8371   46.4971  267.7458 H   0  0  0  0  0  0  0  0  0  0  0  0
   86.1922   45.6317  266.2880 H   0  0  0  0  0  0  0  0  0  0  0  0
  1  2  2  0  0  0  0
  1  5  1  0  0  0  0
  2  3  1  0  0  0  0
  2 12  1  0  0  0  0
  3  4  2  0  0  0  0
  4  6  1  0  0  0  0
  4 11  1  0  0  0  0
  5  6  2  0  0  0  0
  5 10  1  0  0  0  0
  6  7  1  0  0  0  0
  7  8  2  0  0  0  0
  8  9  1  0  0  0  0
  9 10  2  0  0  0  0
 11 13  2  0  0  0  0
 11 15  1  0  0  0  0
 12 22  2  0  0  0  0
 13 14  1  0  0  0  0
 14 17  2  0  0  0  0
 15 16  2  0  0  0  0
 16 17  1  0  0  0  0
 16 20  1  0  0  0  0
 17 18  1  0  0  0  0
 18 19  2  0  0  0  0
 19 20  1  0  0  0  0
 20 21  1  0  0  0  0
 22 23  1  0  0  0  0
 22 27  1  0  0  0  0
 23 24  2  0  0  0  0
 23 28  1  0  0  0  0
 24 25  1  0  0  0  0
 25 26  1  0  0  0  0
 26 27  2  0  0  0  0
 28 29  2  0  0  0  0
 28 30  1  0  0  0  0
  1 31  1  0  0  0  0
  3 32  1  0  0  0  0
  8 33  1  0  0  0  0
  9 34  1  0  0  0  0
 13 35  1  0  0  0  0
 14 36  1  0  0  0  0
 15 37  1  0  0  0  0
 18 38  1  0  0  0  0
 19 39  1  0  0  0  0
 21 40  1  0  0  0  0
 21 41  1  0  0  0  0
 21 42  1  0  0  0  0
 24 43  1  0  0  0  0
 25 44  1  0  0  0  0
 25 45  1  0  0  0  0
 26 46  1  0  0  0  0
 27 47  1  0  0  0  0
 30 48  1  0  0  0  0
 30 49  1  0  0  0  0
M  END
> <ID>
26

> <IC50[uM]>
0.19

$$$$
26
  -OEChem-05192314313D
 Structure written by MMmdl.
 49 53  0     0  0  0  0  0  0999 V2000
   92.5604   47.3400  266.4645 C   0  0  0  0  0  0  0  0  0  0  0  0
   91.6033   48.3329  266.6623 C   0  0  0  0  0  0  0  0  0  0  0  0
   91.9663   49.5284  267.2832 C   0  0  0  0  0  0  0  0  0  0  0  0
   93.2809   49.8044  267.6816 C   0  0  0  0  0  0  0  0  0  0  0  0
   93.8899   47.5440  266.9028 C   0  0  0  0  0  0  0  0  0  0  0  0
   94.2681   48.7863  267.5062 C   0  0  0  0  0  0  0  0  0  0  0  0
   95.5594   48.9658  267.9286 N   0  0  0  0  0  0  0  0  0  0  0  0
   96.4477   47.9579  267.7347 C   0  0  0  0  0  0  0  0  0  0  0  0
   96.0603   46.7470  267.1752 C   0  0  0  0  0  0  0  0  0  0  0  0
   94.7960   46.5358  266.7511 N   0  0  0  0  0  0  0  0  0  0  0  0
   93.5929   51.1046  268.3258 C   0  0  0  0  0  0  0  0  0  0  0  0
   90.2555   48.1502  266.3103 N   0  0  0  0  0  0  0  0  0  0  0  0
   94.5796   51.9524  267.7970 C   0  0  0  0  0  0  0  0  0  0  0  0
   94.8788   53.1903  268.3744 C   0  0  0  0  0  0  0  0  0  0  0  0
   92.8914   51.4478  269.4799 C   0  0  0  0  0  0  0  0  0  0  0  0
   93.2168   52.6679  270.0678 C   0  0  0  0  0  0  0  0  0  0  0  0
   94.1655   53.5690  269.5124 C   0  0  0  0  0  0  0  0  0  0  0  0
   94.1737   54.7307  270.3540 C   0  0  0  0  0  0  0  0  0  0  0  0
   93.2736   54.4902  271.3621 C   0  0  0  0  0  0  0  0  0  0  0  0
   92.7449   53.2407  271.2292 N   0  0  0  0  0  0  0  0  0  0  0  0
   91.8199   52.6411  272.1840 C   0  0  0  0  0  0  0  0  0  0  0  0
   89.6226   47.3651  265.3242 C   0  0  0  0  0  0  0  0  0  0  0  0
   88.2891   46.8965  265.4752 C   0  0  0  0  0  0  0  0  0  0  0  0
   87.7104   46.1731  264.4151 C   0  0  0  0  0  0  0  0  0  0  0  0
   88.4109   45.9091  263.2455 C   0  0  0  0  0  0  0  0  0  0  0  0
   89.7142   46.3643  263.1048 C   0  0  0  0  0  0  0  0  0  0  0  0
   90.3116   47.0903  264.1333 C   0  0  0  0  0  0  0  0  0  0  0  0
   87.4576   47.1549  266.7210 C   0  0  0  0  0  0  0  0  0  0  0  0
   87.7195   48.0491  267.5179 O   0  0  0  0  0  0  0  0  0  0  0  0
   86.4083   46.3619  266.9362 N   0  0  0  0  0  0  0  0  0  0  0  0
   92.2877   46.4156  265.9771 H   0  0  0  0  0  0  0  0  0  0  0  0
   91.2032   50.2710  267.4640 H   0  0  0  0  0  0  0  0  0  0  0  0
   97.4790   48.1007  268.0220 H   0  0  0  0  0  0  0  0  0  0  0  0
   96.7881   45.9552  267.0770 H   0  0  0  0  0  0  0  0  0  0  0  0
   95.1236   51.6390  266.9182 H   0  0  0  0  0  0  0  0  0  0  0  0
   95.6378   53.8328  267.9530 H   0  0  0  0  0  0  0  0  0  0  0  0
   92.1340   50.8008  269.8972 H   0  0  0  0  0  0  0  0  0  0  0  0
   94.7712   55.6204  270.2206 H   0  0  0  0  0  0  0  0  0  0  0  0
   93.0211   55.1888  272.1460 H   0  0  0  0  0  0  0  0  0  0  0  0
   91.6347   53.3459  273.0080 H   0  0  0  0  0  0  0  0  0  0  0  0
   90.8704   52.4101  271.6789 H   0  0  0  0  0  0  0  0  0  0  0  0
   92.2567   51.7147  272.5852 H   0  0  0  0  0  0  0  0  0  0  0  0
   86.6965   45.8146  264.5139 H   0  0  0  0  0  0  0  0  0  0  0  0
   87.9428   45.3513  262.4479 H   0  0  0  0  0  0  0  0  0  0  0  0
   90.2648   46.1562  262.1993 H   0  0  0  0  0  0  0  0  0  0  0  0
   90.5940   48.0633  263.7049 H   0  0  0  0  0  0  0  0  0  0  0  0
   91.2191   46.5379  264.4185 H   0  0  0  0  0  0  0  0  0  0  0  0
   85.8371   46.4971  267.7458 H   0  0  0  0  0  0  0  0  0  0  0  0
   86.1922   45.6317  266.2880 H   0  0  0  0  0  0  0  0  0  0  0  0
  1  2  2  0  0  0  0
  1  5  1  0  0  0  0
  2  3  1  0  0  0  0
  2 12  1  0  0  0  0
  3  4  2  0  0  0  0
  4  6  1  0  0  0  0
  4 11  1  0  0  0  0
  5  6  2  0  0  0  0
  5 10  1  0  0  0  0
  6  7  1  0  0  0  0
  7  8  2  0  0  0  0
  8  9  1  0  0  0  0
  9 10  2  0  0  0  0
 11 13  2  0  0  0  0
 11 15  1  0  0  0  0
 12 22  2  0  0  0  0
 13 14  1  0  0  0  0
 14 17  2  0  0  0  0
 15 16  2  0  0  0  0
 16 17  1  0  0  0  0
 16 20  1  0  0  0  0
 17 18  1  0  0  0  0
 18 19  2  0  0  0  0
 19 20  1  0  0  0  0
 20 21  1  0  0  0  0
 22 23  1  0  0  0  0
 22 27  1  0  0  0  0
 23 24  2  0  0  0  0
 23 28  1  0  0  0  0
 24 25  1  0  0  0  0
 25 26  2  0  0  0  0
 26 27  1  0  0  0  0
 28 29  2  0  0  0  0
 28 30  1  0  0  0  0
  1 31  1  0  0  0  0
  3 32  1  0  0  0  0
  8 33  1  0  0  0  0
  9 34  1  0  0  0  0
 13 35  1  0  0  0  0
 14 36  1  0  0  0  0
 15 37  1  0  0  0  0
 18 38  1  0  0  0  0
 19 39  1  0  0  0  0
 21 40  1  0  0  0  0
 21 41  1  0  0  0  0
 21 42  1  0  0  0  0
 24 43  1  0  0  0  0
 25 44  1  0  0  0  0
 26 45  1  0  0  0  0
 27 46  1  0  0  0  0
 27 47  1  0  0  0  0
 30 48  1  0  0  0  0
 30 49  1  0  0  0  0
M  END
> <ID>
26

> <IC50[uM]>
0.19

$$$$
26
  -OEChem-05192314313D
 Structure written by MMmdl.
 49 53  0     1  0  0  0  0  0999 V2000
   92.5604   47.3400  266.4645 C   0  0  0  0  0  0  0  0  0  0  0  0
   91.6033   48.3329  266.6623 C   0  0  0  0  0  0  0  0  0  0  0  0
   91.9663   49.5284  267.2832 C   0  0  0  0  0  0  0  0  0  0  0  0
   93.2809   49.8044  267.6816 C   0  0  0  0  0  0  0  0  0  0  0  0
   93.8899   47.5440  266.9028 C   0  0  0  0  0  0  0  0  0  0  0  0
   94.2681   48.7863  267.5062 C   0  0  0  0  0  0  0  0  0  0  0  0
   95.5594   48.9658  267.9286 N   0  0  0  0  0  0  0  0  0  0  0  0
   96.4477   47.9579  267.7347 C   0  0  0  0  0  0  0  0  0  0  0  0
   96.0603   46.7470  267.1752 C   0  0  0  0  0  0  0  0  0  0  0  0
   94.7960   46.5358  266.7511 N   0  0  0  0  0  0  0  0  0  0  0  0
   93.5929   51.1046  268.3258 C   0  0  0  0  0  0  0  0  0  0  0  0
   90.2555   48.1502  266.3103 N   0  0  0  0  0  0  0  0  0  0  0  0
   94.5796   51.9524  267.7970 C   0  0  0  0  0  0  0  0  0  0  0  0
   94.8788   53.1903  268.3744 C   0  0  0  0  0  0  0  0  0  0  0  0
   92.8914   51.4478  269.4799 C   0  0  0  0  0  0  0  0  0  0  0  0
   93.2168   52.6679  270.0678 C   0  0  0  0  0  0  0  0  0  0  0  0
   94.1655   53.5690  269.5124 C   0  0  0  0  0  0  0  0  0  0  0  0
   94.1737   54.7307  270.3540 C   0  0  0  0  0  0  0  0  0  0  0  0
   93.2736   54.4902  271.3621 C   0  0  0  0  0  0  0  0  0  0  0  0
   92.7449   53.2407  271.2292 N   0  0  0  0  0  0  0  0  0  0  0  0
   91.8199   52.6411  272.1840 C   0  0  0  0  0  0  0  0  0  0  0  0
   89.6226   47.3651  265.3242 C   0  0  0  0  0  0  0  0  0  0  0  0
   88.2891   46.8965  265.4752 C   0  0  3  0  0  0  0  0  0  0  0  0
   87.7104   46.1731  264.4151 C   0  0  0  0  0  0  0  0  0  0  0  0
   88.4109   45.9091  263.2455 C   0  0  0  0  0  0  0  0  0  0  0  0
   89.7142   46.3643  263.1048 C   0  0  0  0  0  0  0  0  0  0  0  0
   90.3116   47.0903  264.1333 C   0  0  0  0  0  0  0  0  0  0  0  0
   87.4576   47.1549  266.7210 C   0  0  0  0  0  0  0  0  0  0  0  0
   87.7195   48.0491  267.5179 O   0  0  0  0  0  0  0  0  0  0  0  0
   86.4083   46.3619  266.9362 N   0  0  0  0  0  0  0  0  0  0  0  0
   92.2877   46.4156  265.9771 H   0  0  0  0  0  0  0  0  0  0  0  0
   91.2032   50.2710  267.4640 H   0  0  0  0  0  0  0  0  0  0  0  0
   97.4790   48.1007  268.0220 H   0  0  0  0  0  0  0  0  0  0  0  0
   96.7881   45.9552  267.0770 H   0  0  0  0  0  0  0  0  0  0  0  0
   95.1236   51.6390  266.9182 H   0  0  0  0  0  0  0  0  0  0  0  0
   95.6378   53.8328  267.9530 H   0  0  0  0  0  0  0  0  0  0  0  0
   92.1340   50.8008  269.8972 H   0  0  0  0  0  0  0  0  0  0  0  0
   94.7712   55.6204  270.2206 H   0  0  0  0  0  0  0  0  0  0  0  0
   93.0211   55.1888  272.1460 H   0  0  0  0  0  0  0  0  0  0  0  0
   91.6347   53.3459  273.0080 H   0  0  0  0  0  0  0  0  0  0  0  0
   90.8704   52.4101  271.6789 H   0  0  0  0  0  0  0  0  0  0  0  0
   92.2567   51.7147  272.5852 H   0  0  0  0  0  0  0  0  0  0  0  0
   88.6637   45.9603  265.9149 H   0  0  0  0  0  0  0  0  0  0  0  0
   86.6965   45.8146  264.5139 H   0  0  0  0  0  0  0  0  0  0  0  0
   87.9428   45.3513  262.4479 H   0  0  0  0  0  0  0  0  0  0  0  0
   90.2648   46.1562  262.1993 H   0  0  0  0  0  0  0  0  0  0  0  0
   91.3234   47.4479  264.0115 H   0  0  0  0  0  0  0  0  0  0  0  0
   87.0825   48.0423  268.2227 H   0  0  0  0  0  0  0  0  0  0  0  0
   85.9233   46.6022  267.7770 H   0  0  0  0  0  0  0  0  0  0  0  0
  1  2  2  0  0  0  0
  1  5  1  0  0  0  0
  2  3  1  0  0  0  0
  2 12  1  0  0  0  0
  3  4  2  0  0  0  0
  4  6  1  0  0  0  0
  4 11  1  0  0  0  0
  5  6  2  0  0  0  0
  5 10  1  0  0  0  0
  6  7  1  0  0  0  0
  7  8  2  0  0  0  0
  8  9  1  0  0  0  0
  9 10  2  0  0  0  0
 11 13  2  0  0  0  0
 11 15  1  0  0  0  0
 12 22  2  0  0  0  0
 13 14  1  0  0  0  0
 14 17  2  0  0  0  0
 15 16  2  0  0  0  0
 16 17  1  0  0  0  0
 16 20  1  0  0  0  0
 17 18  1  0  0  0  0
 18 19  2  0  0  0  0
 19 20  1  0  0  0  0
 20 21  1  0  0  0  0
 22 23  1  0  0  0  0
 22 27  1  0  0  0  0
 23 24  1  0  0  0  0
 23 28  1  0  0  0  0
 24 25  2  0  0  0  0
 25 26  1  0  0  0  0
 26 27  2  0  0  0  0
 28 29  1  0  0  0  0
 28 30  2  0  0  0  0
  1 31  1  0  0  0  0
  3 32  1  0  0  0  0
  8 33  1  0  0  0  0
  9 34  1  0  0  0  0
 13 35  1  0  0  0  0
 14 36  1  0  0  0  0
 15 37  1  0  0  0  0
 18 38  1  0  0  0  0
 19 39  1  0  0  0  0
 21 40  1  0  0  0  0
 21 41  1  0  0  0  0
 21 42  1  0  0  0  0
 23 43  1  0  0  0  0
 24 44  1  0  0  0  0
 25 45  1  0  0  0  0
 26 46  1  0  0  0  0
 27 47  1  0  0  0  0
 29 48  1  0  0  0  0
 30 49  1  0  0  0  0
M  END
> <ID>
26

> <IC50[uM]>
0.19

$$$$
26
  -OEChem-05192314313D
 Structure written by MMmdl.
 49 53  0     0  0  0  0  0  0999 V2000
   92.5604   47.3400  266.4645 C   0  0  0  0  0  0  0  0  0  0  0  0
   91.6033   48.3329  266.6623 C   0  0  0  0  0  0  0  0  0  0  0  0
   91.9663   49.5284  267.2832 C   0  0  0  0  0  0  0  0  0  0  0  0
   93.2809   49.8044  267.6816 C   0  0  0  0  0  0  0  0  0  0  0  0
   93.8899   47.5440  266.9028 C   0  0  0  0  0  0  0  0  0  0  0  0
   94.2681   48.7863  267.5062 C   0  0  0  0  0  0  0  0  0  0  0  0
   95.5594   48.9658  267.9286 N   0  0  0  0  0  0  0  0  0  0  0  0
   96.4477   47.9579  267.7347 C   0  0  0  0  0  0  0  0  0  0  0  0
   96.0603   46.7470  267.1752 C   0  0  0  0  0  0  0  0  0  0  0  0
   94.7960   46.5358  266.7511 N   0  0  0  0  0  0  0  0  0  0  0  0
   93.5929   51.1046  268.3258 C   0  0  0  0  0  0  0  0  0  0  0  0
   90.2555   48.1502  266.3103 N   0  0  0  0  0  0  0  0  0  0  0  0
   94.5796   51.9524  267.7970 C   0  0  0  0  0  0  0  0  0  0  0  0
   94.8788   53.1903  268.3744 C   0  0  0  0  0  0  0  0  0  0  0  0
   92.8914   51.4478  269.4799 C   0  0  0  0  0  0  0  0  0  0  0  0
   93.2168   52.6679  270.0678 C   0  0  0  0  0  0  0  0  0  0  0  0
   94.1655   53.5690  269.5124 C   0  0  0  0  0  0  0  0  0  0  0  0
   94.1737   54.7307  270.3540 C   0  0  0  0  0  0  0  0  0  0  0  0
   93.2736   54.4902  271.3621 C   0  0  0  0  0  0  0  0  0  0  0  0
   92.7449   53.2407  271.2292 N   0  0  0  0  0  0  0  0  0  0  0  0
   91.8199   52.6411  272.1840 C   0  0  0  0  0  0  0  0  0  0  0  0
   89.6226   47.3651  265.3242 C   0  0  0  0  0  0  0  0  0  0  0  0
   88.2891   46.8965  265.4752 C   0  0  0  0  0  0  0  0  0  0  0  0
   87.7104   46.1731  264.4151 C   0  0  0  0  0  0  0  0  0  0  0  0
   88.4109   45.9091  263.2455 C   0  0  0  0  0  0  0  0  0  0  0  0
   89.7142   46.3643  263.1048 C   0  0  0  0  0  0  0  0  0  0  0  0
   90.3116   47.0903  264.1333 C   0  0  0  0  0  0  0  0  0  0  0  0
   87.4576   47.1549  266.7210 C   0  0  0  0  0  0  0  0  0  0  0  0
   87.7195   48.0491  267.5179 O   0  0  0  0  0  0  0  0  0  0  0  0
   86.4083   46.3619  266.9362 N   0  0  0  0  0  0  0  0  0  0  0  0
   92.2877   46.4156  265.9771 H   0  0  0  0  0  0  0  0  0  0  0  0
   91.2032   50.2710  267.4640 H   0  0  0  0  0  0  0  0  0  0  0  0
   97.4790   48.1007  268.0220 H   0  0  0  0  0  0  0  0  0  0  0  0
   96.7881   45.9552  267.0770 H   0  0  0  0  0  0  0  0  0  0  0  0
   95.1236   51.6390  266.9182 H   0  0  0  0  0  0  0  0  0  0  0  0
   95.6378   53.8328  267.9530 H   0  0  0  0  0  0  0  0  0  0  0  0
   92.1340   50.8008  269.8972 H   0  0  0  0  0  0  0  0  0  0  0  0
   94.7712   55.6204  270.2206 H   0  0  0  0  0  0  0  0  0  0  0  0
   93.0211   55.1888  272.1460 H   0  0  0  0  0  0  0  0  0  0  0  0
   91.6347   53.3459  273.0080 H   0  0  0  0  0  0  0  0  0  0  0  0
   90.8704   52.4101  271.6789 H   0  0  0  0  0  0  0  0  0  0  0  0
   92.2567   51.7147  272.5852 H   0  0  0  0  0  0  0  0  0  0  0  0
   86.6965   45.8146  264.5139 H   0  0  0  0  0  0  0  0  0  0  0  0
   88.4415   44.8153  263.1325 H   0  0  0  0  0  0  0  0  0  0  0  0
   87.8298   46.3468  262.4205 H   0  0  0  0  0  0  0  0  0  0  0  0
   90.2648   46.1562  262.1993 H   0  0  0  0  0  0  0  0  0  0  0  0
   91.3234   47.4479  264.0115 H   0  0  0  0  0  0  0  0  0  0  0  0
   87.0825   48.0423  268.2227 H   0  0  0  0  0  0  0  0  0  0  0  0
   85.9233   46.6022  267.7770 H   0  0  0  0  0  0  0  0  0  0  0  0
  1  2  2  0  0  0  0
  1  5  1  0  0  0  0
  2  3  1  0  0  0  0
  2 12  1  0  0  0  0
  3  4  2  0  0  0  0
  4  6  1  0  0  0  0
  4 11  1  0  0  0  0
  5  6  2  0  0  0  0
  5 10  1  0  0  0  0
  6  7  1  0  0  0  0
  7  8  2  0  0  0  0
  8  9  1  0  0  0  0
  9 10  2  0  0  0  0
 11 13  2  0  0  0  0
 11 15  1  0  0  0  0
 12 22  2  0  0  0  0
 13 14  1  0  0  0  0
 14 17  2  0  0  0  0
 15 16  2  0  0  0  0
 16 17  1  0  0  0  0
 16 20  1  0  0  0  0
 17 18  1  0  0  0  0
 18 19  2  0  0  0  0
 19 20  1  0  0  0  0
 20 21  1  0  0  0  0
 22 23  1  0  0  0  0
 22 27  1  0  0  0  0
 23 24  2  0  0  0  0
 23 28  1  0  0  0  0
 24 25  1  0  0  0  0
 25 26  1  0  0  0  0
 26 27  2  0  0  0  0
 28 29  1  0  0  0  0
 28 30  2  0  0  0  0
  1 31  1  0  0  0  0
  3 32  1  0  0  0  0
  8 33  1  0  0  0  0
  9 34  1  0  0  0  0
 13 35  1  0  0  0  0
 14 36  1  0  0  0  0
 15 37  1  0  0  0  0
 18 38  1  0  0  0  0
 19 39  1  0  0  0  0
 21 40  1  0  0  0  0
 21 41  1  0  0  0  0
 21 42  1  0  0  0  0
 24 43  1  0  0  0  0
 25 44  1  0  0  0  0
 25 45  1  0  0  0  0
 26 46  1  0  0  0  0
 27 47  1  0  0  0  0
 29 48  1  0  0  0  0
 30 49  1  0  0  0  0
M  END
> <ID>
26

> <IC50[uM]>
0.19

$$$$
26
  -OEChem-05192314313D
 Structure written by MMmdl.
 49 53  0     0  0  0  0  0  0999 V2000
   92.5604   47.3400  266.4645 C   0  0  0  0  0  0  0  0  0  0  0  0
   91.6033   48.3329  266.6623 C   0  0  0  0  0  0  0  0  0  0  0  0
   91.9663   49.5284  267.2832 C   0  0  0  0  0  0  0  0  0  0  0  0
   93.2809   49.8044  267.6816 C   0  0  0  0  0  0  0  0  0  0  0  0
   93.8899   47.5440  266.9028 C   0  0  0  0  0  0  0  0  0  0  0  0
   94.2681   48.7863  267.5062 C   0  0  0  0  0  0  0  0  0  0  0  0
   95.5594   48.9658  267.9286 N   0  0  0  0  0  0  0  0  0  0  0  0
   96.4477   47.9579  267.7347 C   0  0  0  0  0  0  0  0  0  0  0  0
   96.0603   46.7470  267.1752 C   0  0  0  0  0  0  0  0  0  0  0  0
   94.7960   46.5358  266.7511 N   0  0  0  0  0  0  0  0  0  0  0  0
   93.5929   51.1046  268.3258 C   0  0  0  0  0  0  0  0  0  0  0  0
   90.2555   48.1502  266.3103 N   0  0  0  0  0  0  0  0  0  0  0  0
   94.5796   51.9524  267.7970 C   0  0  0  0  0  0  0  0  0  0  0  0
   94.8788   53.1903  268.3744 C   0  0  0  0  0  0  0  0  0  0  0  0
   92.8914   51.4478  269.4799 C   0  0  0  0  0  0  0  0  0  0  0  0
   93.2168   52.6679  270.0678 C   0  0  0  0  0  0  0  0  0  0  0  0
   94.1655   53.5690  269.5124 C   0  0  0  0  0  0  0  0  0  0  0  0
   94.1737   54.7307  270.3540 C   0  0  0  0  0  0  0  0  0  0  0  0
   93.2736   54.4902  271.3621 C   0  0  0  0  0  0  0  0  0  0  0  0
   92.7449   53.2407  271.2292 N   0  0  0  0  0  0  0  0  0  0  0  0
   91.8199   52.6411  272.1840 C   0  0  0  0  0  0  0  0  0  0  0  0
   89.6226   47.3651  265.3242 C   0  0  0  0  0  0  0  0  0  0  0  0
   88.2891   46.8965  265.4752 C   0  0  0  0  0  0  0  0  0  0  0  0
   87.7104   46.1731  264.4151 C   0  0  0  0  0  0  0  0  0  0  0  0
   88.4109   45.9091  263.2455 C   0  0  0  0  0  0  0  0  0  0  0  0
   89.7142   46.3643  263.1048 C   0  0  0  0  0  0  0  0  0  0  0  0
   90.3116   47.0903  264.1333 C   0  0  0  0  0  0  0  0  0  0  0  0
   87.4576   47.1549  266.7210 C   0  0  0  0  0  0  0  0  0  0  0  0
   87.7195   48.0491  267.5179 O   0  0  0  0  0  0  0  0  0  0  0  0
   86.4083   46.3619  266.9362 N   0  0  0  0  0  0  0  0  0  0  0  0
   92.2877   46.4156  265.9771 H   0  0  0  0  0  0  0  0  0  0  0  0
   91.2032   50.2710  267.4640 H   0  0  0  0  0  0  0  0  0  0  0  0
   97.4790   48.1007  268.0220 H   0  0  0  0  0  0  0  0  0  0  0  0
   96.7881   45.9552  267.0770 H   0  0  0  0  0  0  0  0  0  0  0  0
   95.1236   51.6390  266.9182 H   0  0  0  0  0  0  0  0  0  0  0  0
   95.6378   53.8328  267.9530 H   0  0  0  0  0  0  0  0  0  0  0  0
   92.1340   50.8008  269.8972 H   0  0  0  0  0  0  0  0  0  0  0  0
   94.7712   55.6204  270.2206 H   0  0  0  0  0  0  0  0  0  0  0  0
   93.0211   55.1888  272.1460 H   0  0  0  0  0  0  0  0  0  0  0  0
   91.6347   53.3459  273.0080 H   0  0  0  0  0  0  0  0  0  0  0  0
   90.8704   52.4101  271.6789 H   0  0  0  0  0  0  0  0  0  0  0  0
   92.2567   51.7147  272.5852 H   0  0  0  0  0  0  0  0  0  0  0  0
   86.6965   45.8146  264.5139 H   0  0  0  0  0  0  0  0  0  0  0  0
   87.9428   45.3513  262.4479 H   0  0  0  0  0  0  0  0  0  0  0  0
   90.2648   46.1562  262.1993 H   0  0  0  0  0  0  0  0  0  0  0  0
   90.5940   48.0633  263.7049 H   0  0  0  0  0  0  0  0  0  0  0  0
   91.2191   46.5379  264.4185 H   0  0  0  0  0  0  0  0  0  0  0  0
   87.0825   48.0423  268.2227 H   0  0  0  0  0  0  0  0  0  0  0  0
   85.9233   46.6022  267.7770 H   0  0  0  0  0  0  0  0  0  0  0  0
  1  2  2  0  0  0  0
  1  5  1  0  0  0  0
  2  3  1  0  0  0  0
  2 12  1  0  0  0  0
  3  4  2  0  0  0  0
  4  6  1  0  0  0  0
  4 11  1  0  0  0  0
  5  6  2  0  0  0  0
  5 10  1  0  0  0  0
  6  7  1  0  0  0  0
  7  8  2  0  0  0  0
  8  9  1  0  0  0  0
  9 10  2  0  0  0  0
 11 13  2  0  0  0  0
 11 15  1  0  0  0  0
 12 22  2  0  0  0  0
 13 14  1  0  0  0  0
 14 17  2  0  0  0  0
 15 16  2  0  0  0  0
 16 17  1  0  0  0  0
 16 20  1  0  0  0  0
 17 18  1  0  0  0  0
 18 19  2  0  0  0  0
 19 20  1  0  0  0  0
 20 21  1  0  0  0  0
 22 23  1  0  0  0  0
 22 27  1  0  0  0  0
 23 24  2  0  0  0  0
 23 28  1  0  0  0  0
 24 25  1  0  0  0  0
 25 26  2  0  0  0  0
 26 27  1  0  0  0  0
 28 29  1  0  0  0  0
 28 30  2  0  0  0  0
  1 31  1  0  0  0  0
  3 32  1  0  0  0  0
  8 33  1  0  0  0  0
  9 34  1  0  0  0  0
 13 35  1  0  0  0  0
 14 36  1  0  0  0  0
 15 37  1  0  0  0  0
 18 38  1  0  0  0  0
 19 39  1  0  0  0  0
 21 40  1  0  0  0  0
 21 41  1  0  0  0  0
 21 42  1  0  0  0  0
 24 43  1  0  0  0  0
 25 44  1  0  0  0  0
 26 45  1  0  0  0  0
 27 46  1  0  0  0  0
 27 47  1  0  0  0  0
 29 48  1  0  0  0  0
 30 49  1  0  0  0  0
M  END
> <ID>
26

> <IC50[uM]>
0.19

$$$$
26
  -OEChem-05192314313D
 Structure written by MMmdl.
 49 53  0     1  0  0  0  0  0999 V2000
   92.5604   47.3400  266.4645 C   0  0  0  0  0  0  0  0  0  0  0  0
   91.6033   48.3329  266.6623 C   0  0  0  0  0  0  0  0  0  0  0  0
   91.9663   49.5284  267.2832 C   0  0  0  0  0  0  0  0  0  0  0  0
   93.2809   49.8044  267.6816 C   0  0  0  0  0  0  0  0  0  0  0  0
   93.8899   47.5440  266.9028 C   0  0  0  0  0  0  0  0  0  0  0  0
   94.2681   48.7863  267.5062 C   0  0  3  0  0  0  0  0  0  0  0  0
   95.5594   48.9658  267.9286 N   0  0  0  0  0  0  0  0  0  0  0  0
   96.4477   47.9579  267.7347 C   0  0  0  0  0  0  0  0  0  0  0  0
   96.0603   46.7470  267.1752 C   0  0  0  0  0  0  0  0  0  0  0  0
   94.7960   46.5358  266.7511 N   0  0  0  0  0  0  0  0  0  0  0  0
   93.5929   51.1046  268.3258 C   0  0  0  0  0  0  0  0  0  0  0  0
   90.2555   48.1502  266.3103 N   0  0  0  0  0  0  0  0  0  0  0  0
   94.5796   51.9524  267.7970 C   0  0  0  0  0  0  0  0  0  0  0  0
   94.8788   53.1903  268.3744 C   0  0  0  0  0  0  0  0  0  0  0  0
   92.8914   51.4478  269.4799 C   0  0  0  0  0  0  0  0  0  0  0  0
   93.2168   52.6679  270.0678 C   0  0  0  0  0  0  0  0  0  0  0  0
   94.1655   53.5690  269.5124 C   0  0  0  0  0  0  0  0  0  0  0  0
   94.1737   54.7307  270.3540 C   0  0  0  0  0  0  0  0  0  0  0  0
   93.2736   54.4902  271.3621 C   0  0  0  0  0  0  0  0  0  0  0  0
   92.7449   53.2407  271.2292 N   0  0  0  0  0  0  0  0  0  0  0  0
   91.8199   52.6411  272.1840 C   0  0  0  0  0  0  0  0  0  0  0  0
   89.6226   47.3651  265.3242 C   0  0  0  0  0  0  0  0  0  0  0  0
   88.2891   46.8965  265.4752 C   0  0  0  0  0  0  0  0  0  0  0  0
   87.7104   46.1731  264.4151 C   0  0  0  0  0  0  0  0  0  0  0  0
   88.4109   45.9091  263.2455 C   0  0  0  0  0  0  0  0  0  0  0  0
   89.7142   46.3643  263.1048 C   0  0  0  0  0  0  0  0  0  0  0  0
   90.3116   47.0903  264.1333 C   0  0  0  0  0  0  0  0  0  0  0  0
   87.4576   47.1549  266.7210 C   0  0  0  0  0  0  0  0  0  0  0  0
   87.7195   48.0491  267.5179 O   0  0  0  0  0  0  0  0  0  0  0  0
   86.4083   46.3619  266.9362 N   0  0  0  0  0  0  0  0  0  0  0  0
   92.2877   46.4156  265.9771 H   0  0  0  0  0  0  0  0  0  0  0  0
   91.2032   50.2710  267.4640 H   0  0  0  0  0  0  0  0  0  0  0  0
   94.5260   49.1961  266.5185 H   0  0  0  0  0  0  0  0  0  0  0  0
   97.4790   48.1007  268.0220 H   0  0  0  0  0  0  0  0  0  0  0  0
   96.7881   45.9552  267.0770 H   0  0  0  0  0  0  0  0  0  0  0  0
   95.1236   51.6390  266.9182 H   0  0  0  0  0  0  0  0  0  0  0  0
   95.6378   53.8328  267.9530 H   0  0  0  0  0  0  0  0  0  0  0  0
   92.1340   50.8008  269.8972 H   0  0  0  0  0  0  0  0  0  0  0  0
   94.7712   55.6204  270.2206 H   0  0  0  0  0  0  0  0  0  0  0  0
   93.0211   55.1888  272.1460 H   0  0  0  0  0  0  0  0  0  0  0  0
   91.6347   53.3459  273.0080 H   0  0  0  0  0  0  0  0  0  0  0  0
   90.8704   52.4101  271.6789 H   0  0  0  0  0  0  0  0  0  0  0  0
   92.2567   51.7147  272.5852 H   0  0  0  0  0  0  0  0  0  0  0  0
   86.6965   45.8146  264.5139 H   0  0  0  0  0  0  0  0  0  0  0  0
   87.9428   45.3513  262.4479 H   0  0  0  0  0  0  0  0  0  0  0  0
   90.2648   46.1562  262.1993 H   0  0  0  0  0  0  0  0  0  0  0  0
   91.3234   47.4479  264.0115 H   0  0  0  0  0  0  0  0  0  0  0  0
   85.8371   46.4971  267.7458 H   0  0  0  0  0  0  0  0  0  0  0  0
   86.1922   45.6317  266.2880 H   0  0  0  0  0  0  0  0  0  0  0  0
  1  2  1  0  0  0  0
  1  5  2  0  0  0  0
  2  3  1  0  0  0  0
  2 12  2  0  0  0  0
  3  4  2  0  0  0  0
  4  6  1  0  0  0  0
  4 11  1  0  0  0  0
  5  6  1  0  0  0  0
  5 10  1  0  0  0  0
  6  7  1  0  0  0  0
  7  8  2  0  0  0  0
  8  9  1  0  0  0  0
  9 10  2  0  0  0  0
 11 13  2  0  0  0  0
 11 15  1  0  0  0  0
 12 22  1  0  0  0  0
 13 14  1  0  0  0  0
 14 17  2  0  0  0  0
 15 16  2  0  0  0  0
 16 17  1  0  0  0  0
 16 20  1  0  0  0  0
 17 18  1  0  0  0  0
 18 19  2  0  0  0  0
 19 20  1  0  0  0  0
 20 21  1  0  0  0  0
 22 23  2  0  0  0  0
 22 27  1  0  0  0  0
 23 24  1  0  0  0  0
 23 28  1  0  0  0  0
 24 25  2  0  0  0  0
 25 26  1  0  0  0  0
 26 27  2  0  0  0  0
 28 29  2  0  0  0  0
 28 30  1  0  0  0  0
  1 31  1  0  0  0  0
  3 32  1  0  0  0  0
  6 33  1  0  0  0  0
  8 34  1  0  0  0  0
  9 35  1  0  0  0  0
 13 36  1  0  0  0  0
 14 37  1  0  0  0  0
 15 38  1  0  0  0  0
 18 39  1  0  0  0  0
 19 40  1  0  0  0  0
 21 41  1  0  0  0  0
 21 42  1  0  0  0  0
 21 43  1  0  0  0  0
 24 44  1  0  0  0  0
 25 45  1  0  0  0  0
 26 46  1  0  0  0  0
 27 47  1  0  0  0  0
 30 48  1  0  0  0  0
 30 49  1  0  0  0  0
M  END
> <ID>
26

> <IC50[uM]>
0.19

$$$$
26
  -OEChem-05192314313D
 Structure written by MMmdl.
 49 53  0     0  0  0  0  0  0999 V2000
   92.5604   47.3400  266.4645 C   0  0  0  0  0  0  0  0  0  0  0  0
   91.6033   48.3329  266.6623 C   0  0  0  0  0  0  0  0  0  0  0  0
   91.9663   49.5284  267.2832 C   0  0  0  0  0  0  0  0  0  0  0  0
   93.2809   49.8044  267.6816 C   0  0  0  0  0  0  0  0  0  0  0  0
   93.8899   47.5440  266.9028 C   0  0  0  0  0  0  0  0  0  0  0  0
   94.2681   48.7863  267.5062 C   0  0  0  0  0  0  0  0  0  0  0  0
   95.5594   48.9658  267.9286 N   0  0  0  0  0  0  0  0  0  0  0  0
   96.4477   47.9579  267.7347 C   0  0  0  0  0  0  0  0  0  0  0  0
   96.0603   46.7470  267.1752 C   0  0  0  0  0  0  0  0  0  0  0  0
   94.7960   46.5358  266.7511 N   0  0  0  0  0  0  0  0  0  0  0  0
   93.5929   51.1046  268.3258 C   0  0  0  0  0  0  0  0  0  0  0  0
   90.2555   48.1502  266.3103 N   0  0  0  0  0  0  0  0  0  0  0  0
   94.5796   51.9524  267.7970 C   0  0  0  0  0  0  0  0  0  0  0  0
   94.8788   53.1903  268.3744 C   0  0  0  0  0  0  0  0  0  0  0  0
   92.8914   51.4478  269.4799 C   0  0  0  0  0  0  0  0  0  0  0  0
   93.2168   52.6679  270.0678 C   0  0  0  0  0  0  0  0  0  0  0  0
   94.1655   53.5690  269.5124 C   0  0  0  0  0  0  0  0  0  0  0  0
   94.1737   54.7307  270.3540 C   0  0  0  0  0  0  0  0  0  0  0  0
   93.2736   54.4902  271.3621 C   0  0  0  0  0  0  0  0  0  0  0  0
   92.7449   53.2407  271.2292 N   0  0  0  0  0  0  0  0  0  0  0  0
   91.8199   52.6411  272.1840 C   0  0  0  0  0  0  0  0  0  0  0  0
   89.6226   47.3651  265.3242 C   0  0  0  0  0  0  0  0  0  0  0  0
   88.2891   46.8965  265.4752 C   0  0  0  0  0  0  0  0  0  0  0  0
   87.7104   46.1731  264.4151 C   0  0  0  0  0  0  0  0  0  0  0  0
   88.4109   45.9091  263.2455 C   0  0  0  0  0  0  0  0  0  0  0  0
   89.7142   46.3643  263.1048 C   0  0  0  0  0  0  0  0  0  0  0  0
   90.3116   47.0903  264.1333 C   0  0  0  0  0  0  0  0  0  0  0  0
   87.4576   47.1549  266.7210 C   0  0  0  0  0  0  0  0  0  0  0  0
   87.7195   48.0491  267.5179 O   0  0  0  0  0  0  0  0  0  0  0  0
   86.4083   46.3619  266.9362 N   0  0  0  0  0  0  0  0  0  0  0  0
   92.2877   46.4156  265.9771 H   0  0  0  0  0  0  0  0  0  0  0  0
   91.2032   50.2710  267.4640 H   0  0  0  0  0  0  0  0  0  0  0  0
   97.2380   48.3615  267.0847 H   0  0  0  0  0  0  0  0  0  0  0  0
   96.8702   47.7223  268.7226 H   0  0  0  0  0  0  0  0  0  0  0  0
   96.7881   45.9552  267.0770 H   0  0  0  0  0  0  0  0  0  0  0  0
   95.1236   51.6390  266.9182 H   0  0  0  0  0  0  0  0  0  0  0  0
   95.6378   53.8328  267.9530 H   0  0  0  0  0  0  0  0  0  0  0  0
   92.1340   50.8008  269.8972 H   0  0  0  0  0  0  0  0  0  0  0  0
   94.7712   55.6204  270.2206 H   0  0  0  0  0  0  0  0  0  0  0  0
   93.0211   55.1888  272.1460 H   0  0  0  0  0  0  0  0  0  0  0  0
   91.6347   53.3459  273.0080 H   0  0  0  0  0  0  0  0  0  0  0  0
   90.8704   52.4101  271.6789 H   0  0  0  0  0  0  0  0  0  0  0  0
   92.2567   51.7147  272.5852 H   0  0  0  0  0  0  0  0  0  0  0  0
   86.6965   45.8146  264.5139 H   0  0  0  0  0  0  0  0  0  0  0  0
   87.9428   45.3513  262.4479 H   0  0  0  0  0  0  0  0  0  0  0  0
   90.2648   46.1562  262.1993 H   0  0  0  0  0  0  0  0  0  0  0  0
   91.3234   47.4479  264.0115 H   0  0  0  0  0  0  0  0  0  0  0  0
   85.8371   46.4971  267.7458 H   0  0  0  0  0  0  0  0  0  0  0  0
   86.1922   45.6317  266.2880 H   0  0  0  0  0  0  0  0  0  0  0  0
  1  2  1  0  0  0  0
  1  5  2  0  0  0  0
  2  3  1  0  0  0  0
  2 12  2  0  0  0  0
  3  4  2  0  0  0  0
  4  6  1  0  0  0  0
  4 11  1  0  0  0  0
  5  6  1  0  0  0  0
  5 10  1  0  0  0  0
  6  7  2  0  0  0  0
  7  8  1  0  0  0  0
  8  9  1  0  0  0  0
  9 10  2  0  0  0  0
 11 13  2  0  0  0  0
 11 15  1  0  0  0  0
 12 22  1  0  0  0  0
 13 14  1  0  0  0  0
 14 17  2  0  0  0  0
 15 16  2  0  0  0  0
 16 17  1  0  0  0  0
 16 20  1  0  0  0  0
 17 18  1  0  0  0  0
 18 19  2  0  0  0  0
 19 20  1  0  0  0  0
 20 21  1  0  0  0  0
 22 23  2  0  0  0  0
 22 27  1  0  0  0  0
 23 24  1  0  0  0  0
 23 28  1  0  0  0  0
 24 25  2  0  0  0  0
 25 26  1  0  0  0  0
 26 27  2  0  0  0  0
 28 29  2  0  0  0  0
 28 30  1  0  0  0  0
  1 31  1  0  0  0  0
  3 32  1  0  0  0  0
  8 33  1  0  0  0  0
  8 34  1  0  0  0  0
  9 35  1  0  0  0  0
 13 36  1  0  0  0  0
 14 37  1  0  0  0  0
 15 38  1  0  0  0  0
 18 39  1  0  0  0  0
 19 40  1  0  0  0  0
 21 41  1  0  0  0  0
 21 42  1  0  0  0  0
 21 43  1  0  0  0  0
 24 44  1  0  0  0  0
 25 45  1  0  0  0  0
 26 46  1  0  0  0  0
 27 47  1  0  0  0  0
 30 48  1  0  0  0  0
 30 49  1  0  0  0  0
M  END
> <ID>
26

> <IC50[uM]>
0.19

$$$$
26
  -OEChem-05192314313D
 Structure written by MMmdl.
 49 53  0     1  0  0  0  0  0999 V2000
   92.5604   47.3400  266.4645 C   0  0  0  0  0  0  0  0  0  0  0  0
   91.6033   48.3329  266.6623 C   0  0  0  0  0  0  0  0  0  0  0  0
   91.9663   49.5284  267.2832 C   0  0  0  0  0  0  0  0  0  0  0  0
   93.2809   49.8044  267.6816 C   0  0  0  0  0  0  0  0  0  0  0  0
   93.8899   47.5440  266.9028 C   0  0  0  0  0  0  0  0  0  0  0  0
   94.2681   48.7863  267.5062 C   0  0  3  0  0  0  0  0  0  0  0  0
   95.5594   48.9658  267.9286 N   0  0  0  0  0  0  0  0  0  0  0  0
   96.4477   47.9579  267.7347 C   0  0  0  0  0  0  0  0  0  0  0  0
   96.0603   46.7470  267.1752 C   0  0  0  0  0  0  0  0  0  0  0  0
   94.7960   46.5358  266.7511 N   0  0  0  0  0  0  0  0  0  0  0  0
   93.5929   51.1046  268.3258 C   0  0  0  0  0  0  0  0  0  0  0  0
   90.2555   48.1502  266.3103 N   0  0  0  0  0  0  0  0  0  0  0  0
   94.5796   51.9524  267.7970 C   0  0  0  0  0  0  0  0  0  0  0  0
   94.8788   53.1903  268.3744 C   0  0  0  0  0  0  0  0  0  0  0  0
   92.8914   51.4478  269.4799 C   0  0  0  0  0  0  0  0  0  0  0  0
   93.2168   52.6679  270.0678 C   0  0  0  0  0  0  0  0  0  0  0  0
   94.1655   53.5690  269.5124 C   0  0  0  0  0  0  0  0  0  0  0  0
   94.1737   54.7307  270.3540 C   0  0  0  0  0  0  0  0  0  0  0  0
   93.2736   54.4902  271.3621 C   0  0  0  0  0  0  0  0  0  0  0  0
   92.7449   53.2407  271.2292 N   0  0  0  0  0  0  0  0  0  0  0  0
   91.8199   52.6411  272.1840 C   0  0  0  0  0  0  0  0  0  0  0  0
   89.6226   47.3651  265.3242 C   0  0  0  0  0  0  0  0  0  0  0  0
   88.2891   46.8965  265.4752 C   0  0  0  0  0  0  0  0  0  0  0  0
   87.7104   46.1731  264.4151 C   0  0  0  0  0  0  0  0  0  0  0  0
   88.4109   45.9091  263.2455 C   0  0  0  0  0  0  0  0  0  0  0  0
   89.7142   46.3643  263.1048 C   0  0  0  0  0  0  0  0  0  0  0  0
   90.3116   47.0903  264.1333 C   0  0  0  0  0  0  0  0  0  0  0  0
   87.4576   47.1549  266.7210 C   0  0  0  0  0  0  0  0  0  0  0  0
   87.7195   48.0491  267.5179 O   0  0  0  0  0  0  0  0  0  0  0  0
   86.4083   46.3619  266.9362 N   0  0  0  0  0  0  0  0  0  0  0  0
   92.2877   46.4156  265.9771 H   0  0  0  0  0  0  0  0  0  0  0  0
   91.2032   50.2710  267.4640 H   0  0  0  0  0  0  0  0  0  0  0  0
   94.5260   49.1961  266.5185 H   0  0  0  0  0  0  0  0  0  0  0  0
   97.4790   48.1007  268.0220 H   0  0  0  0  0  0  0  0  0  0  0  0
   96.7881   45.9552  267.0770 H   0  0  0  0  0  0  0  0  0  0  0  0
   95.1236   51.6390  266.9182 H   0  0  0  0  0  0  0  0  0  0  0  0
   95.6378   53.8328  267.9530 H   0  0  0  0  0  0  0  0  0  0  0  0
   92.1340   50.8008  269.8972 H   0  0  0  0  0  0  0  0  0  0  0  0
   94.7712   55.6204  270.2206 H   0  0  0  0  0  0  0  0  0  0  0  0
   93.0211   55.1888  272.1460 H   0  0  0  0  0  0  0  0  0  0  0  0
   91.6347   53.3459  273.0080 H   0  0  0  0  0  0  0  0  0  0  0  0
   90.8704   52.4101  271.6789 H   0  0  0  0  0  0  0  0  0  0  0  0
   92.2567   51.7147  272.5852 H   0  0  0  0  0  0  0  0  0  0  0  0
   86.6965   45.8146  264.5139 H   0  0  0  0  0  0  0  0  0  0  0  0
   87.9428   45.3513  262.4479 H   0  0  0  0  0  0  0  0  0  0  0  0
   90.2648   46.1562  262.1993 H   0  0  0  0  0  0  0  0  0  0  0  0
   91.3234   47.4479  264.0115 H   0  0  0  0  0  0  0  0  0  0  0  0
   87.0825   48.0423  268.2227 H   0  0  0  0  0  0  0  0  0  0  0  0
   85.9233   46.6022  267.7770 H   0  0  0  0  0  0  0  0  0  0  0  0
  1  2  1  0  0  0  0
  1  5  2  0  0  0  0
  2  3  1  0  0  0  0
  2 12  2  0  0  0  0
  3  4  2  0  0  0  0
  4  6  1  0  0  0  0
  4 11  1  0  0  0  0
  5  6  1  0  0  0  0
  5 10  1  0  0  0  0
  6  7  1  0  0  0  0
  7  8  2  0  0  0  0
  8  9  1  0  0  0  0
  9 10  2  0  0  0  0
 11 13  2  0  0  0  0
 11 15  1  0  0  0  0
 12 22  1  0  0  0  0
 13 14  1  0  0  0  0
 14 17  2  0  0  0  0
 15 16  2  0  0  0  0
 16 17  1  0  0  0  0
 16 20  1  0  0  0  0
 17 18  1  0  0  0  0
 18 19  2  0  0  0  0
 19 20  1  0  0  0  0
 20 21  1  0  0  0  0
 22 23  2  0  0  0  0
 22 27  1  0  0  0  0
 23 24  1  0  0  0  0
 23 28  1  0  0  0  0
 24 25  2  0  0  0  0
 25 26  1  0  0  0  0
 26 27  2  0  0  0  0
 28 29  1  0  0  0  0
 28 30  2  0  0  0  0
  1 31  1  0  0  0  0
  3 32  1  0  0  0  0
  6 33  1  0  0  0  0
  8 34  1  0  0  0  0
  9 35  1  0  0  0  0
 13 36  1  0  0  0  0
 14 37  1  0  0  0  0
 15 38  1  0  0  0  0
 18 39  1  0  0  0  0
 19 40  1  0  0  0  0
 21 41  1  0  0  0  0
 21 42  1  0  0  0  0
 21 43  1  0  0  0  0
 24 44  1  0  0  0  0
 25 45  1  0  0  0  0
 26 46  1  0  0  0  0
 27 47  1  0  0  0  0
 29 48  1  0  0  0  0
 30 49  1  0  0  0  0
M  END
> <ID>
26

> <IC50[uM]>
0.19

$$$$
26
  -OEChem-05192314313D
 Structure written by MMmdl.
 49 53  0     0  0  0  0  0  0999 V2000
   92.5604   47.3400  266.4645 C   0  0  0  0  0  0  0  0  0  0  0  0
   91.6033   48.3329  266.6623 C   0  0  0  0  0  0  0  0  0  0  0  0
   91.9663   49.5284  267.2832 C   0  0  0  0  0  0  0  0  0  0  0  0
   93.2809   49.8044  267.6816 C   0  0  0  0  0  0  0  0  0  0  0  0
   93.8899   47.5440  266.9028 C   0  0  0  0  0  0  0  0  0  0  0  0
   94.2681   48.7863  267.5062 C   0  0  0  0  0  0  0  0  0  0  0  0
   95.5594   48.9658  267.9286 N   0  0  0  0  0  0  0  0  0  0  0  0
   96.4477   47.9579  267.7347 C   0  0  0  0  0  0  0  0  0  0  0  0
   96.0603   46.7470  267.1752 C   0  0  0  0  0  0  0  0  0  0  0  0
   94.7960   46.5358  266.7511 N   0  0  0  0  0  0  0  0  0  0  0  0
   93.5929   51.1046  268.3258 C   0  0  0  0  0  0  0  0  0  0  0  0
   90.2555   48.1502  266.3103 N   0  0  0  0  0  0  0  0  0  0  0  0
   94.5796   51.9524  267.7970 C   0  0  0  0  0  0  0  0  0  0  0  0
   94.8788   53.1903  268.3744 C   0  0  0  0  0  0  0  0  0  0  0  0
   92.8914   51.4478  269.4799 C   0  0  0  0  0  0  0  0  0  0  0  0
   93.2168   52.6679  270.0678 C   0  0  0  0  0  0  0  0  0  0  0  0
   94.1655   53.5690  269.5124 C   0  0  0  0  0  0  0  0  0  0  0  0
   94.1737   54.7307  270.3540 C   0  0  0  0  0  0  0  0  0  0  0  0
   93.2736   54.4902  271.3621 C   0  0  0  0  0  0  0  0  0  0  0  0
   92.7449   53.2407  271.2292 N   0  0  0  0  0  0  0  0  0  0  0  0
   91.8199   52.6411  272.1840 C   0  0  0  0  0  0  0  0  0  0  0  0
   89.6226   47.3651  265.3242 C   0  0  0  0  0  0  0  0  0  0  0  0
   88.2891   46.8965  265.4752 C   0  0  0  0  0  0  0  0  0  0  0  0
   87.7104   46.1731  264.4151 C   0  0  0  0  0  0  0  0  0  0  0  0
   88.4109   45.9091  263.2455 C   0  0  0  0  0  0  0  0  0  0  0  0
   89.7142   46.3643  263.1048 C   0  0  0  0  0  0  0  0  0  0  0  0
   90.3116   47.0903  264.1333 C   0  0  0  0  0  0  0  0  0  0  0  0
   87.4576   47.1549  266.7210 C   0  0  0  0  0  0  0  0  0  0  0  0
   87.7195   48.0491  267.5179 O   0  0  0  0  0  0  0  0  0  0  0  0
   86.4083   46.3619  266.9362 N   0  0  0  0  0  0  0  0  0  0  0  0
   92.2877   46.4156  265.9771 H   0  0  0  0  0  0  0  0  0  0  0  0
   91.2032   50.2710  267.4640 H   0  0  0  0  0  0  0  0  0  0  0  0
   97.2380   48.3615  267.0847 H   0  0  0  0  0  0  0  0  0  0  0  0
   96.8702   47.7223  268.7226 H   0  0  0  0  0  0  0  0  0  0  0  0
   96.7881   45.9552  267.0770 H   0  0  0  0  0  0  0  0  0  0  0  0
   95.1236   51.6390  266.9182 H   0  0  0  0  0  0  0  0  0  0  0  0
   95.6378   53.8328  267.9530 H   0  0  0  0  0  0  0  0  0  0  0  0
   92.1340   50.8008  269.8972 H   0  0  0  0  0  0  0  0  0  0  0  0
   94.7712   55.6204  270.2206 H   0  0  0  0  0  0  0  0  0  0  0  0
   93.0211   55.1888  272.1460 H   0  0  0  0  0  0  0  0  0  0  0  0
   91.6347   53.3459  273.0080 H   0  0  0  0  0  0  0  0  0  0  0  0
   90.8704   52.4101  271.6789 H   0  0  0  0  0  0  0  0  0  0  0  0
   92.2567   51.7147  272.5852 H   0  0  0  0  0  0  0  0  0  0  0  0
   86.6965   45.8146  264.5139 H   0  0  0  0  0  0  0  0  0  0  0  0
   87.9428   45.3513  262.4479 H   0  0  0  0  0  0  0  0  0  0  0  0
   90.2648   46.1562  262.1993 H   0  0  0  0  0  0  0  0  0  0  0  0
   91.3234   47.4479  264.0115 H   0  0  0  0  0  0  0  0  0  0  0  0
   87.0825   48.0423  268.2227 H   0  0  0  0  0  0  0  0  0  0  0  0
   85.9233   46.6022  267.7770 H   0  0  0  0  0  0  0  0  0  0  0  0
  1  2  1  0  0  0  0
  1  5  2  0  0  0  0
  2  3  1  0  0  0  0
  2 12  2  0  0  0  0
  3  4  2  0  0  0  0
  4  6  1  0  0  0  0
  4 11  1  0  0  0  0
  5  6  1  0  0  0  0
  5 10  1  0  0  0  0
  6  7  2  0  0  0  0
  7  8  1  0  0  0  0
  8  9  1  0  0  0  0
  9 10  2  0  0  0  0
 11 13  2  0  0  0  0
 11 15  1  0  0  0  0
 12 22  1  0  0  0  0
 13 14  1  0  0  0  0
 14 17  2  0  0  0  0
 15 16  2  0  0  0  0
 16 17  1  0  0  0  0
 16 20  1  0  0  0  0
 17 18  1  0  0  0  0
 18 19  2  0  0  0  0
 19 20  1  0  0  0  0
 20 21  1  0  0  0  0
 22 23  2  0  0  0  0
 22 27  1  0  0  0  0
 23 24  1  0  0  0  0
 23 28  1  0  0  0  0
 24 25  2  0  0  0  0
 25 26  1  0  0  0  0
 26 27  2  0  0  0  0
 28 29  1  0  0  0  0
 28 30  2  0  0  0  0
  1 31  1  0  0  0  0
  3 32  1  0  0  0  0
  8 33  1  0  0  0  0
  8 34  1  0  0  0  0
  9 35  1  0  0  0  0
 13 36  1  0  0  0  0
 14 37  1  0  0  0  0
 15 38  1  0  0  0  0
 18 39  1  0  0  0  0
 19 40  1  0  0  0  0
 21 41  1  0  0  0  0
 21 42  1  0  0  0  0
 21 43  1  0  0  0  0
 24 44  1  0  0  0  0
 25 45  1  0  0  0  0
 26 46  1  0  0  0  0
 27 47  1  0  0  0  0
 29 48  1  0  0  0  0
 30 49  1  0  0  0  0
M  END
> <ID>
26

> <IC50[uM]>
0.19

$$$$
26
  -OEChem-05192314313D
 Structure written by MMmdl.
 49 53  0     0  0  0  0  0  0999 V2000
   92.5604   47.3400  266.4645 C   0  0  0  0  0  0  0  0  0  0  0  0
   91.6033   48.3329  266.6623 C   0  0  0  0  0  0  0  0  0  0  0  0
   91.9663   49.5284  267.2832 C   0  0  0  0  0  0  0  0  0  0  0  0
   93.2809   49.8044  267.6816 C   0  0  0  0  0  0  0  0  0  0  0  0
   93.8899   47.5440  266.9028 C   0  0  0  0  0  0  0  0  0  0  0  0
   94.2681   48.7863  267.5062 C   0  0  0  0  0  0  0  0  0  0  0  0
   95.5594   48.9658  267.9286 N   0  0  0  0  0  0  0  0  0  0  0  0
   96.4477   47.9579  267.7347 C   0  0  0  0  0  0  0  0  0  0  0  0
   96.0603   46.7470  267.1752 C   0  0  0  0  0  0  0  0  0  0  0  0
   94.7960   46.5358  266.7511 N   0  0  0  0  0  0  0  0  0  0  0  0
   93.5929   51.1046  268.3258 C   0  0  0  0  0  0  0  0  0  0  0  0
   90.2555   48.1502  266.3103 N   0  0  0  0  0  0  0  0  0  0  0  0
   94.5796   51.9524  267.7970 C   0  0  0  0  0  0  0  0  0  0  0  0
   94.8788   53.1903  268.3744 C   0  0  0  0  0  0  0  0  0  0  0  0
   92.8914   51.4478  269.4799 C   0  0  0  0  0  0  0  0  0  0  0  0
   93.2168   52.6679  270.0678 C   0  0  0  0  0  0  0  0  0  0  0  0
   94.1655   53.5690  269.5124 C   0  0  0  0  0  0  0  0  0  0  0  0
   94.1737   54.7307  270.3540 C   0  0  0  0  0  0  0  0  0  0  0  0
   93.2736   54.4902  271.3621 C   0  0  0  0  0  0  0  0  0  0  0  0
   92.7449   53.2407  271.2292 N   0  0  0  0  0  0  0  0  0  0  0  0
   91.8199   52.6411  272.1840 C   0  0  0  0  0  0  0  0  0  0  0  0
   89.6226   47.3651  265.3242 C   0  0  0  0  0  0  0  0  0  0  0  0
   88.2891   46.8965  265.4752 C   0  0  0  0  0  0  0  0  0  0  0  0
   87.7104   46.1731  264.4151 C   0  0  0  0  0  0  0  0  0  0  0  0
   88.4109   45.9091  263.2455 C   0  0  0  0  0  0  0  0  0  0  0  0
   89.7142   46.3643  263.1048 C   0  0  0  0  0  0  0  0  0  0  0  0
   90.3116   47.0903  264.1333 C   0  0  0  0  0  0  0  0  0  0  0  0
   87.4576   47.1549  266.7210 C   0  0  0  0  0  0  0  0  0  0  0  0
   87.7195   48.0491  267.5179 O   0  0  0  0  0  0  0  0  0  0  0  0
   86.4083   46.3619  266.9362 N   0  0  0  0  0  0  0  0  0  0  0  0
   92.2877   46.4156  265.9771 H   0  0  0  0  0  0  0  0  0  0  0  0
   91.2032   50.2710  267.4640 H   0  0  0  0  0  0  0  0  0  0  0  0
   97.4790   48.1007  268.0220 H   0  0  0  0  0  0  0  0  0  0  0  0
   96.7881   45.9552  267.0770 H   0  0  0  0  0  0  0  0  0  0  0  0
   95.1236   51.6390  266.9182 H   0  0  0  0  0  0  0  0  0  0  0  0
   95.6378   53.8328  267.9530 H   0  0  0  0  0  0  0  0  0  0  0  0
   92.1340   50.8008  269.8972 H   0  0  0  0  0  0  0  0  0  0  0  0
   94.7712   55.6204  270.2206 H   0  0  0  0  0  0  0  0  0  0  0  0
   93.0211   55.1888  272.1460 H   0  0  0  0  0  0  0  0  0  0  0  0
   91.6347   53.3459  273.0080 H   0  0  0  0  0  0  0  0  0  0  0  0
   90.8704   52.4101  271.6789 H   0  0  0  0  0  0  0  0  0  0  0  0
   92.2567   51.7147  272.5852 H   0  0  0  0  0  0  0  0  0  0  0  0
   86.6965   45.8146  264.5139 H   0  0  0  0  0  0  0  0  0  0  0  0
   87.9428   45.3513  262.4479 H   0  0  0  0  0  0  0  0  0  0  0  0
   90.2648   46.1562  262.1993 H   0  0  0  0  0  0  0  0  0  0  0  0
   91.3234   47.4479  264.0115 H   0  0  0  0  0  0  0  0  0  0  0  0
   87.0825   48.0423  268.2227 H   0  0  0  0  0  0  0  0  0  0  0  0
   85.9506   46.6361  267.7820 H   0  0  0  0  0  0  0  0  0  0  0  0
   85.7692   46.4399  266.1710 H   0  0  0  0  0  0  0  0  0  0  0  0
  1  2  2  0  0  0  0
  1  5  1  0  0  0  0
  2  3  1  0  0  0  0
  2 12  1  0  0  0  0
  3  4  2  0  0  0  0
  4  6  1  0  0  0  0
  4 11  1  0  0  0  0
  5  6  2  0  0  0  0
  5 10  1  0  0  0  0
  6  7  1  0  0  0  0
  7  8  2  0  0  0  0
  8  9  1  0  0  0  0
  9 10  2  0  0  0  0
 11 13  2  0  0  0  0
 11 15  1  0  0  0  0
 12 22  2  0  0  0  0
 13 14  1  0  0  0  0
 14 17  2  0  0  0  0
 15 16  2  0  0  0  0
 16 17  1  0  0  0  0
 16 20  1  0  0  0  0
 17 18  1  0  0  0  0
 18 19  2  0  0  0  0
 19 20  1  0  0  0  0
 20 21  1  0  0  0  0
 22 23  1  0  0  0  0
 22 27  1  0  0  0  0
 23 24  1  0  0  0  0
 23 28  2  0  0  0  0
 24 25  2  0  0  0  0
 25 26  1  0  0  0  0
 26 27  2  0  0  0  0
 28 29  1  0  0  0  0
 28 30  1  0  0  0  0
  1 31  1  0  0  0  0
  3 32  1  0  0  0  0
  8 33  1  0  0  0  0
  9 34  1  0  0  0  0
 13 35  1  0  0  0  0
 14 36  1  0  0  0  0
 15 37  1  0  0  0  0
 18 38  1  0  0  0  0
 19 39  1  0  0  0  0
 21 40  1  0  0  0  0
 21 41  1  0  0  0  0
 21 42  1  0  0  0  0
 24 43  1  0  0  0  0
 25 44  1  0  0  0  0
 26 45  1  0  0  0  0
 27 46  1  0  0  0  0
 29 47  1  0  0  0  0
 30 48  1  0  0  0  0
 30 49  1  0  0  0  0
M  END
> <ID>
26

> <IC50[uM]>
0.19

$$$$
