37
  -OEChem-05192314313D
 Structure written by MMmdl.
 62 67  0     0  0  0  0  0  0999 V2000
   92.5682   47.3462  266.4833 C   0  0  0  0  0  0  0  0  0  0  0  0
   91.6181   48.3452  266.6664 C   0  0  0  0  0  0  0  0  0  0  0  0
   91.9789   49.5400  267.2763 C   0  0  0  0  0  0  0  0  0  0  0  0
   93.2937   49.7963  267.6790 C   0  0  0  0  0  0  0  0  0  0  0  0
   93.8967   47.5399  266.9140 C   0  0  0  0  0  0  0  0  0  0  0  0
   94.2761   48.7809  267.5103 C   0  0  0  0  0  0  0  0  0  0  0  0
   95.5636   48.9666  267.9328 N   0  0  0  0  0  0  0  0  0  0  0  0
   96.4501   47.9585  267.7397 C   0  0  0  0  0  0  0  0  0  0  0  0
   96.0608   46.7452  267.1831 C   0  0  0  0  0  0  0  0  0  0  0  0
   94.7948   46.5277  266.7655 N   0  0  0  0  0  0  0  0  0  0  0  0
   93.5976   51.0957  268.3217 C   0  0  0  0  0  0  0  0  0  0  0  0
   90.2871   48.1511  266.2958 N   0  0  0  0  0  0  0  0  0  0  0  0
   94.5711   51.9448  267.7868 C   0  0  0  0  0  0  0  0  0  0  0  0
   94.8615   53.1780  268.3681 C   0  0  0  0  0  0  0  0  0  0  0  0
   92.8931   51.4384  269.4756 C   0  0  0  0  0  0  0  0  0  0  0  0
   93.1961   52.6578  270.0710 C   0  0  0  0  0  0  0  0  0  0  0  0
   94.1500   53.5596  269.5095 C   0  0  0  0  0  0  0  0  0  0  0  0
   94.1496   54.7271  270.3451 C   0  0  0  0  0  0  0  0  0  0  0  0
   93.2853   54.4571  271.3772 C   0  0  0  0  0  0  0  0  0  0  0  0
   92.7216   53.2230  271.2344 N   0  0  0  0  0  0  0  0  0  0  0  0
   89.7168   47.3542  265.2854 C   0  0  0  0  0  0  0  0  0  0  0  0
   88.4155   46.8174  265.3915 C   0  0  0  0  0  0  0  0  0  0  0  0
   87.9008   46.1080  264.2919 C   0  0  0  0  0  0  0  0  0  0  0  0
   88.6799   45.9426  263.1569 C   0  0  0  0  0  0  0  0  0  0  0  0
   89.9312   46.4387  263.0407 N   0  0  0  0  0  0  0  0  0  0  0  0
   90.4252   47.1278  264.0989 C   0  0  0  0  0  0  0  0  0  0  0  0
   87.5601   46.9683  266.6297 C   0  0  0  0  0  0  0  0  0  0  0  0
   87.6700   47.9323  267.3876 O   0  0  0  0  0  0  0  0  0  0  0  0
   86.6670   45.9862  266.8167 N   0  0  0  0  0  0  0  0  0  0  0  0
   85.5963   45.9500  267.7902 C   0  0  0  0  0  0  0  0  0  0  0  0
   91.8041   52.6238  272.1856 C   0  0  0  0  0  0  0  0  0  0  0  0
   85.8697   44.9843  268.9505 C   0  0  0  0  0  0  0  0  0  0  0  0
   84.6496   44.8209  269.8728 C   0  0  0  0  0  0  0  0  0  0  0  0
   83.4889   44.4695  269.1237 O   0  0  0  0  0  0  0  0  0  0  0  0
   83.1249   45.4242  268.1288 C   0  0  0  0  0  0  0  0  0  0  0  0
   84.2584   45.6197  267.1140 C   0  0  0  0  0  0  0  0  0  0  0  0
   92.2870   46.4176  266.0089 H   0  0  0  0  0  0  0  0  0  0  0  0
   91.2226   50.2925  267.4444 H   0  0  0  0  0  0  0  0  0  0  0  0
   97.4820   48.1014  268.0247 H   0  0  0  0  0  0  0  0  0  0  0  0
   96.7904   45.9554  267.0820 H   0  0  0  0  0  0  0  0  0  0  0  0
   89.6255   48.6659  266.8410 H   0  0  0  0  0  0  0  0  0  0  0  0
   95.1105   51.6382  266.9028 H   0  0  0  0  0  0  0  0  0  0  0  0
   95.6181   53.8233  267.9468 H   0  0  0  0  0  0  0  0  0  0  0  0
   92.1419   50.7825  269.8902 H   0  0  0  0  0  0  0  0  0  0  0  0
   94.7150   55.6345  270.1926 H   0  0  0  0  0  0  0  0  0  0  0  0
   93.0789   55.1325  272.1942 H   0  0  0  0  0  0  0  0  0  0  0  0
   86.9040   45.6942  264.3312 H   0  0  0  0  0  0  0  0  0  0  0  0
   88.2666   45.3906  262.3257 H   0  0  0  0  0  0  0  0  0  0  0  0
   91.4260   47.5263  264.0219 H   0  0  0  0  0  0  0  0  0  0  0  0
   86.7496   45.1902  266.2171 H   0  0  0  0  0  0  0  0  0  0  0  0
   85.4970   46.9554  268.2252 H   0  0  0  0  0  0  0  0  0  0  0  0
   91.6189   53.3276  273.0105 H   0  0  0  0  0  0  0  0  0  0  0  0
   90.8542   52.3912  271.6820 H   0  0  0  0  0  0  0  0  0  0  0  0
   92.2435   51.6980  272.5854 H   0  0  0  0  0  0  0  0  0  0  0  0
   86.1349   44.0002  268.5368 H   0  0  0  0  0  0  0  0  0  0  0  0
   86.7116   45.3721  269.5428 H   0  0  0  0  0  0  0  0  0  0  0  0
   84.8572   44.0292  270.6078 H   0  0  0  0  0  0  0  0  0  0  0  0
   84.4656   45.7697  270.3980 H   0  0  0  0  0  0  0  0  0  0  0  0
   82.2270   45.0697  267.6014 H   0  0  0  0  0  0  0  0  0  0  0  0
   82.9081   46.3864  268.6158 H   0  0  0  0  0  0  0  0  0  0  0  0
   83.9900   46.4457  266.4389 H   0  0  0  0  0  0  0  0  0  0  0  0
   84.3755   44.6937  266.5320 H   0  0  0  0  0  0  0  0  0  0  0  0
  1  2  2  0  0  0  0
  1  5  1  0  0  0  0
  2  3  1  0  0  0  0
  2 12  1  0  0  0  0
  3  4  2  0  0  0  0
  4  6  1  0  0  0  0
  4 11  1  0  0  0  0
  5  6  2  0  0  0  0
  5 10  1  0  0  0  0
  6  7  1  0  0  0  0
  7  8  2  0  0  0  0
  8  9  1  0  0  0  0
  9 10  2  0  0  0  0
 11 13  2  0  0  0  0
 11 15  1  0  0  0  0
 12 21  1  0  0  0  0
 13 14  1  0  0  0  0
 14 17  2  0  0  0  0
 15 16  2  0  0  0  0
 16 17  1  0  0  0  0
 16 20  1  0  0  0  0
 17 18  1  0  0  0  0
 18 19  2  0  0  0  0
 19 20  1  0  0  0  0
 20 31  1  0  0  0  0
 21 22  2  0  0  0  0
 21 26  1  0  0  0  0
 22 23  1  0  0  0  0
 22 27  1  0  0  0  0
 23 24  2  0  0  0  0
 24 25  1  0  0  0  0
 25 26  2  0  0  0  0
 27 28  2  0  0  0  0
 27 29  1  0  0  0  0
 29 30  1  0  0  0  0
 30 32  1  0  0  0  0
 30 36  1  0  0  0  0
 32 33  1  0  0  0  0
 33 34  1  0  0  0  0
 34 35  1  0  0  0  0
 35 36  1  0  0  0  0
  1 37  1  0  0  0  0
  3 38  1  0  0  0  0
  8 39  1  0  0  0  0
  9 40  1  0  0  0  0
 12 41  1  0  0  0  0
 13 42  1  0  0  0  0
 14 43  1  0  0  0  0
 15 44  1  0  0  0  0
 18 45  1  0  0  0  0
 19 46  1  0  0  0  0
 23 47  1  0  0  0  0
 24 48  1  0  0  0  0
 26 49  1  0  0  0  0
 29 50  1  0  0  0  0
 30 51  1  0  0  0  0
 31 52  1  0  0  0  0
 31 53  1  0  0  0  0
 31 54  1  0  0  0  0
 32 55  1  0  0  0  0
 32 56  1  0  0  0  0
 33 57  1  0  0  0  0
 33 58  1  0  0  0  0
 35 59  1  0  0  0  0
 35 60  1  0  0  0  0
 36 61  1  0  0  0  0
 36 62  1  0  0  0  0
M  END
> <ID>
37

> <IC50[uM]>
0.047

$$$$
37
  -OEChem-05192314313D
 Structure written by MMmdl.
 62 67  0     0  0  0  0  0  0999 V2000
   92.5682   47.3462  266.4833 C   0  0  0  0  0  0  0  0  0  0  0  0
   91.6181   48.3452  266.6664 C   0  0  0  0  0  0  0  0  0  0  0  0
   91.9789   49.5400  267.2763 C   0  0  0  0  0  0  0  0  0  0  0  0
   93.2937   49.7963  267.6790 C   0  0  0  0  0  0  0  0  0  0  0  0
   93.8967   47.5399  266.9140 C   0  0  0  0  0  0  0  0  0  0  0  0
   94.2761   48.7809  267.5103 C   0  0  0  0  0  0  0  0  0  0  0  0
   95.5636   48.9666  267.9328 N   0  0  0  0  0  0  0  0  0  0  0  0
   96.4501   47.9585  267.7397 C   0  0  0  0  0  0  0  0  0  0  0  0
   96.0608   46.7452  267.1831 C   0  0  0  0  0  0  0  0  0  0  0  0
   94.7948   46.5277  266.7655 N   0  0  0  0  0  0  0  0  0  0  0  0
   93.5976   51.0957  268.3217 C   0  0  0  0  0  0  0  0  0  0  0  0
   90.2871   48.1511  266.2958 N   0  0  0  0  0  0  0  0  0  0  0  0
   94.5711   51.9448  267.7868 C   0  0  0  0  0  0  0  0  0  0  0  0
   94.8615   53.1780  268.3681 C   0  0  0  0  0  0  0  0  0  0  0  0
   92.8931   51.4384  269.4756 C   0  0  0  0  0  0  0  0  0  0  0  0
   93.1961   52.6578  270.0710 C   0  0  0  0  0  0  0  0  0  0  0  0
   94.1500   53.5596  269.5095 C   0  0  0  0  0  0  0  0  0  0  0  0
   94.1496   54.7271  270.3451 C   0  0  0  0  0  0  0  0  0  0  0  0
   93.2853   54.4571  271.3772 C   0  0  0  0  0  0  0  0  0  0  0  0
   92.7216   53.2230  271.2344 N   0  0  0  0  0  0  0  0  0  0  0  0
   89.7168   47.3542  265.2854 C   0  0  0  0  0  0  0  0  0  0  0  0
   88.4155   46.8174  265.3915 C   0  0  0  0  0  0  0  0  0  0  0  0
   87.9008   46.1080  264.2919 C   0  0  0  0  0  0  0  0  0  0  0  0
   88.6799   45.9426  263.1569 C   0  0  0  0  0  0  0  0  0  0  0  0
   89.9312   46.4387  263.0407 N   0  0  0  0  0  0  0  0  0  0  0  0
   90.4252   47.1278  264.0989 C   0  0  0  0  0  0  0  0  0  0  0  0
   87.5601   46.9683  266.6297 C   0  0  0  0  0  0  0  0  0  0  0  0
   87.6700   47.9323  267.3876 O   0  0  0  0  0  0  0  0  0  0  0  0
   86.6670   45.9862  266.8167 N   0  0  0  0  0  0  0  0  0  0  0  0
   85.5963   45.9500  267.7902 C   0  0  0  0  0  0  0  0  0  0  0  0
   91.8041   52.6238  272.1856 C   0  0  0  0  0  0  0  0  0  0  0  0
   85.8697   44.9843  268.9505 C   0  0  0  0  0  0  0  0  0  0  0  0
   84.6496   44.8209  269.8728 C   0  0  0  0  0  0  0  0  0  0  0  0
   83.4889   44.4695  269.1237 O   0  0  0  0  0  0  0  0  0  0  0  0
   83.1249   45.4242  268.1288 C   0  0  0  0  0  0  0  0  0  0  0  0
   84.2584   45.6197  267.1140 C   0  0  0  0  0  0  0  0  0  0  0  0
   92.2870   46.4176  266.0089 H   0  0  0  0  0  0  0  0  0  0  0  0
   91.2226   50.2925  267.4444 H   0  0  0  0  0  0  0  0  0  0  0  0
   97.4820   48.1014  268.0247 H   0  0  0  0  0  0  0  0  0  0  0  0
   96.7904   45.9554  267.0820 H   0  0  0  0  0  0  0  0  0  0  0  0
   89.6255   48.6659  266.8410 H   0  0  0  0  0  0  0  0  0  0  0  0
   95.1105   51.6382  266.9028 H   0  0  0  0  0  0  0  0  0  0  0  0
   95.6181   53.8233  267.9468 H   0  0  0  0  0  0  0  0  0  0  0  0
   92.1419   50.7825  269.8902 H   0  0  0  0  0  0  0  0  0  0  0  0
   94.7150   55.6345  270.1926 H   0  0  0  0  0  0  0  0  0  0  0  0
   93.0789   55.1325  272.1942 H   0  0  0  0  0  0  0  0  0  0  0  0
   86.9040   45.6942  264.3312 H   0  0  0  0  0  0  0  0  0  0  0  0
   88.2666   45.3906  262.3257 H   0  0  0  0  0  0  0  0  0  0  0  0
   91.4260   47.5263  264.0219 H   0  0  0  0  0  0  0  0  0  0  0  0
   87.0502   47.8460  268.1024 H   0  0  0  0  0  0  0  0  0  0  0  0
   85.4970   46.9554  268.2252 H   0  0  0  0  0  0  0  0  0  0  0  0
   91.6189   53.3276  273.0105 H   0  0  0  0  0  0  0  0  0  0  0  0
   90.8542   52.3912  271.6820 H   0  0  0  0  0  0  0  0  0  0  0  0
   92.2435   51.6980  272.5854 H   0  0  0  0  0  0  0  0  0  0  0  0
   86.1349   44.0002  268.5368 H   0  0  0  0  0  0  0  0  0  0  0  0
   86.7116   45.3721  269.5428 H   0  0  0  0  0  0  0  0  0  0  0  0
   84.8572   44.0292  270.6078 H   0  0  0  0  0  0  0  0  0  0  0  0
   84.4656   45.7697  270.3980 H   0  0  0  0  0  0  0  0  0  0  0  0
   82.2270   45.0697  267.6014 H   0  0  0  0  0  0  0  0  0  0  0  0
   82.9081   46.3864  268.6158 H   0  0  0  0  0  0  0  0  0  0  0  0
   83.9900   46.4457  266.4389 H   0  0  0  0  0  0  0  0  0  0  0  0
   84.3755   44.6937  266.5320 H   0  0  0  0  0  0  0  0  0  0  0  0
  1  2  2  0  0  0  0
  1  5  1  0  0  0  0
  2  3  1  0  0  0  0
  2 12  1  0  0  0  0
  3  4  2  0  0  0  0
  4  6  1  0  0  0  0
  4 11  1  0  0  0  0
  5  6  2  0  0  0  0
  5 10  1  0  0  0  0
  6  7  1  0  0  0  0
  7  8  2  0  0  0  0
  8  9  1  0  0  0  0
  9 10  2  0  0  0  0
 11 13  2  0  0  0  0
 11 15  1  0  0  0  0
 12 21  1  0  0  0  0
 13 14  1  0  0  0  0
 14 17  2  0  0  0  0
 15 16  2  0  0  0  0
 16 17  1  0  0  0  0
 16 20  1  0  0  0  0
 17 18  1  0  0  0  0
 18 19  2  0  0  0  0
 19 20  1  0  0  0  0
 20 31  1  0  0  0  0
 21 22  2  0  0  0  0
 21 26  1  0  0  0  0
 22 23  1  0  0  0  0
 22 27  1  0  0  0  0
 23 24  2  0  0  0  0
 24 25  1  0  0  0  0
 25 26  2  0  0  0  0
 27 28  1  0  0  0  0
 27 29  2  0  0  0  0
 29 30  1  0  0  0  0
 30 32  1  0  0  0  0
 30 36  1  0  0  0  0
 32 33  1  0  0  0  0
 33 34  1  0  0  0  0
 34 35  1  0  0  0  0
 35 36  1  0  0  0  0
  1 37  1  0  0  0  0
  3 38  1  0  0  0  0
  8 39  1  0  0  0  0
  9 40  1  0  0  0  0
 12 41  1  0  0  0  0
 13 42  1  0  0  0  0
 14 43  1  0  0  0  0
 15 44  1  0  0  0  0
 18 45  1  0  0  0  0
 19 46  1  0  0  0  0
 23 47  1  0  0  0  0
 24 48  1  0  0  0  0
 26 49  1  0  0  0  0
 28 50  1  0  0  0  0
 30 51  1  0  0  0  0
 31 52  1  0  0  0  0
 31 53  1  0  0  0  0
 31 54  1  0  0  0  0
 32 55  1  0  0  0  0
 32 56  1  0  0  0  0
 33 57  1  0  0  0  0
 33 58  1  0  0  0  0
 35 59  1  0  0  0  0
 35 60  1  0  0  0  0
 36 61  1  0  0  0  0
 36 62  1  0  0  0  0
M  END
> <ID>
37

> <IC50[uM]>
0.047

$$$$
37
  -OEChem-05192314313D
 Structure written by MMmdl.
 62 67  0     0  0  0  0  0  0999 V2000
   92.5682   47.3462  266.4833 C   0  0  0  0  0  0  0  0  0  0  0  0
   91.6181   48.3452  266.6664 C   0  0  0  0  0  0  0  0  0  0  0  0
   91.9789   49.5400  267.2763 C   0  0  0  0  0  0  0  0  0  0  0  0
   93.2937   49.7963  267.6790 C   0  0  0  0  0  0  0  0  0  0  0  0
   93.8967   47.5399  266.9140 C   0  0  0  0  0  0  0  0  0  0  0  0
   94.2761   48.7809  267.5103 C   0  0  0  0  0  0  0  0  0  0  0  0
   95.5636   48.9666  267.9328 N   0  0  0  0  0  0  0  0  0  0  0  0
   96.4501   47.9585  267.7397 C   0  0  0  0  0  0  0  0  0  0  0  0
   96.0608   46.7452  267.1831 C   0  0  0  0  0  0  0  0  0  0  0  0
   94.7948   46.5277  266.7655 N   0  0  0  0  0  0  0  0  0  0  0  0
   93.5976   51.0957  268.3217 C   0  0  0  0  0  0  0  0  0  0  0  0
   90.2871   48.1511  266.2958 N   0  0  0  0  0  0  0  0  0  0  0  0
   94.5711   51.9448  267.7868 C   0  0  0  0  0  0  0  0  0  0  0  0
   94.8615   53.1780  268.3681 C   0  0  0  0  0  0  0  0  0  0  0  0
   92.8931   51.4384  269.4756 C   0  0  0  0  0  0  0  0  0  0  0  0
   93.1961   52.6578  270.0710 C   0  0  0  0  0  0  0  0  0  0  0  0
   94.1500   53.5596  269.5095 C   0  0  0  0  0  0  0  0  0  0  0  0
   94.1496   54.7271  270.3451 C   0  0  0  0  0  0  0  0  0  0  0  0
   93.2853   54.4571  271.3772 C   0  0  0  0  0  0  0  0  0  0  0  0
   92.7216   53.2230  271.2344 N   0  0  0  0  0  0  0  0  0  0  0  0
   89.7168   47.3542  265.2854 C   0  0  0  0  0  0  0  0  0  0  0  0
   88.4155   46.8174  265.3915 C   0  0  0  0  0  0  0  0  0  0  0  0
   87.9008   46.1080  264.2919 C   0  0  0  0  0  0  0  0  0  0  0  0
   88.6799   45.9426  263.1569 C   0  0  0  0  0  0  0  0  0  0  0  0
   89.9312   46.4387  263.0407 N   0  0  0  0  0  0  0  0  0  0  0  0
   90.4252   47.1278  264.0989 C   0  0  0  0  0  0  0  0  0  0  0  0
   87.5601   46.9683  266.6297 C   0  0  0  0  0  0  0  0  0  0  0  0
   87.6700   47.9323  267.3876 O   0  0  0  0  0  0  0  0  0  0  0  0
   86.6670   45.9862  266.8167 N   0  0  0  0  0  0  0  0  0  0  0  0
   85.5963   45.9500  267.7902 C   0  0  0  0  0  0  0  0  0  0  0  0
   91.8041   52.6238  272.1856 C   0  0  0  0  0  0  0  0  0  0  0  0
   85.8697   44.9843  268.9505 C   0  0  0  0  0  0  0  0  0  0  0  0
   84.6496   44.8209  269.8728 C   0  0  0  0  0  0  0  0  0  0  0  0
   83.4889   44.4695  269.1237 O   0  0  0  0  0  0  0  0  0  0  0  0
   83.1249   45.4242  268.1288 C   0  0  0  0  0  0  0  0  0  0  0  0
   84.2584   45.6197  267.1140 C   0  0  0  0  0  0  0  0  0  0  0  0
   92.2870   46.4176  266.0089 H   0  0  0  0  0  0  0  0  0  0  0  0
   91.2226   50.2925  267.4444 H   0  0  0  0  0  0  0  0  0  0  0  0
   97.4820   48.1014  268.0247 H   0  0  0  0  0  0  0  0  0  0  0  0
   96.7904   45.9554  267.0820 H   0  0  0  0  0  0  0  0  0  0  0  0
   94.5265   45.6533  266.3612 H   0  0  0  0  0  0  0  0  0  0  0  0
   95.1105   51.6382  266.9028 H   0  0  0  0  0  0  0  0  0  0  0  0
   95.6181   53.8233  267.9468 H   0  0  0  0  0  0  0  0  0  0  0  0
   92.1419   50.7825  269.8902 H   0  0  0  0  0  0  0  0  0  0  0  0
   94.7150   55.6345  270.1926 H   0  0  0  0  0  0  0  0  0  0  0  0
   93.0789   55.1325  272.1942 H   0  0  0  0  0  0  0  0  0  0  0  0
   86.9040   45.6942  264.3312 H   0  0  0  0  0  0  0  0  0  0  0  0
   88.2666   45.3906  262.3257 H   0  0  0  0  0  0  0  0  0  0  0  0
   91.4260   47.5263  264.0219 H   0  0  0  0  0  0  0  0  0  0  0  0
   86.7496   45.1902  266.2171 H   0  0  0  0  0  0  0  0  0  0  0  0
   85.4970   46.9554  268.2252 H   0  0  0  0  0  0  0  0  0  0  0  0
   91.6189   53.3276  273.0105 H   0  0  0  0  0  0  0  0  0  0  0  0
   90.8542   52.3912  271.6820 H   0  0  0  0  0  0  0  0  0  0  0  0
   92.2435   51.6980  272.5854 H   0  0  0  0  0  0  0  0  0  0  0  0
   86.1349   44.0002  268.5368 H   0  0  0  0  0  0  0  0  0  0  0  0
   86.7116   45.3721  269.5428 H   0  0  0  0  0  0  0  0  0  0  0  0
   84.8572   44.0292  270.6078 H   0  0  0  0  0  0  0  0  0  0  0  0
   84.4656   45.7697  270.3980 H   0  0  0  0  0  0  0  0  0  0  0  0
   82.2270   45.0697  267.6014 H   0  0  0  0  0  0  0  0  0  0  0  0
   82.9081   46.3864  268.6158 H   0  0  0  0  0  0  0  0  0  0  0  0
   83.9900   46.4457  266.4389 H   0  0  0  0  0  0  0  0  0  0  0  0
   84.3755   44.6937  266.5320 H   0  0  0  0  0  0  0  0  0  0  0  0
  1  2  1  0  0  0  0
  1  5  2  0  0  0  0
  2  3  1  0  0  0  0
  2 12  2  0  0  0  0
  3  4  2  0  0  0  0
  4  6  1  0  0  0  0
  4 11  1  0  0  0  0
  5  6  1  0  0  0  0
  5 10  1  0  0  0  0
  6  7  2  0  0  0  0
  7  8  1  0  0  0  0
  8  9  2  0  0  0  0
  9 10  1  0  0  0  0
 11 13  2  0  0  0  0
 11 15  1  0  0  0  0
 12 21  1  0  0  0  0
 13 14  1  0  0  0  0
 14 17  2  0  0  0  0
 15 16  2  0  0  0  0
 16 17  1  0  0  0  0
 16 20  1  0  0  0  0
 17 18  1  0  0  0  0
 18 19  2  0  0  0  0
 19 20  1  0  0  0  0
 20 31  1  0  0  0  0
 21 22  2  0  0  0  0
 21 26  1  0  0  0  0
 22 23  1  0  0  0  0
 22 27  1  0  0  0  0
 23 24  2  0  0  0  0
 24 25  1  0  0  0  0
 25 26  2  0  0  0  0
 27 28  2  0  0  0  0
 27 29  1  0  0  0  0
 29 30  1  0  0  0  0
 30 32  1  0  0  0  0
 30 36  1  0  0  0  0
 32 33  1  0  0  0  0
 33 34  1  0  0  0  0
 34 35  1  0  0  0  0
 35 36  1  0  0  0  0
  1 37  1  0  0  0  0
  3 38  1  0  0  0  0
  8 39  1  0  0  0  0
  9 40  1  0  0  0  0
 10 41  1  0  0  0  0
 13 42  1  0  0  0  0
 14 43  1  0  0  0  0
 15 44  1  0  0  0  0
 18 45  1  0  0  0  0
 19 46  1  0  0  0  0
 23 47  1  0  0  0  0
 24 48  1  0  0  0  0
 26 49  1  0  0  0  0
 29 50  1  0  0  0  0
 30 51  1  0  0  0  0
 31 52  1  0  0  0  0
 31 53  1  0  0  0  0
 31 54  1  0  0  0  0
 32 55  1  0  0  0  0
 32 56  1  0  0  0  0
 33 57  1  0  0  0  0
 33 58  1  0  0  0  0
 35 59  1  0  0  0  0
 35 60  1  0  0  0  0
 36 61  1  0  0  0  0
 36 62  1  0  0  0  0
M  END
> <ID>
37

> <IC50[uM]>
0.047

$$$$
37
  -OEChem-05192314313D
 Structure written by MMmdl.
 62 67  0     0  0  0  0  0  0999 V2000
   92.5682   47.3462  266.4833 C   0  0  0  0  0  0  0  0  0  0  0  0
   91.6181   48.3452  266.6664 C   0  0  0  0  0  0  0  0  0  0  0  0
   91.9789   49.5400  267.2763 C   0  0  0  0  0  0  0  0  0  0  0  0
   93.2937   49.7963  267.6790 C   0  0  0  0  0  0  0  0  0  0  0  0
   93.8967   47.5399  266.9140 C   0  0  0  0  0  0  0  0  0  0  0  0
   94.2761   48.7809  267.5103 C   0  0  0  0  0  0  0  0  0  0  0  0
   95.5636   48.9666  267.9328 N   0  0  0  0  0  0  0  0  0  0  0  0
   96.4501   47.9585  267.7397 C   0  0  0  0  0  0  0  0  0  0  0  0
   96.0608   46.7452  267.1831 C   0  0  0  0  0  0  0  0  0  0  0  0
   94.7948   46.5277  266.7655 N   0  0  0  0  0  0  0  0  0  0  0  0
   93.5976   51.0957  268.3217 C   0  0  0  0  0  0  0  0  0  0  0  0
   90.2871   48.1511  266.2958 N   0  0  0  0  0  0  0  0  0  0  0  0
   94.5711   51.9448  267.7868 C   0  0  0  0  0  0  0  0  0  0  0  0
   94.8615   53.1780  268.3681 C   0  0  0  0  0  0  0  0  0  0  0  0
   92.8931   51.4384  269.4756 C   0  0  0  0  0  0  0  0  0  0  0  0
   93.1961   52.6578  270.0710 C   0  0  0  0  0  0  0  0  0  0  0  0
   94.1500   53.5596  269.5095 C   0  0  0  0  0  0  0  0  0  0  0  0
   94.1496   54.7271  270.3451 C   0  0  0  0  0  0  0  0  0  0  0  0
   93.2853   54.4571  271.3772 C   0  0  0  0  0  0  0  0  0  0  0  0
   92.7216   53.2230  271.2344 N   0  0  0  0  0  0  0  0  0  0  0  0
   89.7168   47.3542  265.2854 C   0  0  0  0  0  0  0  0  0  0  0  0
   88.4155   46.8174  265.3915 C   0  0  0  0  0  0  0  0  0  0  0  0
   87.9008   46.1080  264.2919 C   0  0  0  0  0  0  0  0  0  0  0  0
   88.6799   45.9426  263.1569 C   0  0  0  0  0  0  0  0  0  0  0  0
   89.9312   46.4387  263.0407 N   0  0  0  0  0  0  0  0  0  0  0  0
   90.4252   47.1278  264.0989 C   0  0  0  0  0  0  0  0  0  0  0  0
   87.5601   46.9683  266.6297 C   0  0  0  0  0  0  0  0  0  0  0  0
   87.6700   47.9323  267.3876 O   0  0  0  0  0  0  0  0  0  0  0  0
   86.6670   45.9862  266.8167 N   0  0  0  0  0  0  0  0  0  0  0  0
   85.5963   45.9500  267.7902 C   0  0  0  0  0  0  0  0  0  0  0  0
   91.8041   52.6238  272.1856 C   0  0  0  0  0  0  0  0  0  0  0  0
   85.8697   44.9843  268.9505 C   0  0  0  0  0  0  0  0  0  0  0  0
   84.6496   44.8209  269.8728 C   0  0  0  0  0  0  0  0  0  0  0  0
   83.4889   44.4695  269.1237 O   0  0  0  0  0  0  0  0  0  0  0  0
   83.1249   45.4242  268.1288 C   0  0  0  0  0  0  0  0  0  0  0  0
   84.2584   45.6197  267.1140 C   0  0  0  0  0  0  0  0  0  0  0  0
   92.2870   46.4176  266.0089 H   0  0  0  0  0  0  0  0  0  0  0  0
   91.2226   50.2925  267.4444 H   0  0  0  0  0  0  0  0  0  0  0  0
   97.4820   48.1014  268.0247 H   0  0  0  0  0  0  0  0  0  0  0  0
   96.7904   45.9554  267.0820 H   0  0  0  0  0  0  0  0  0  0  0  0
   94.5265   45.6533  266.3612 H   0  0  0  0  0  0  0  0  0  0  0  0
   95.1105   51.6382  266.9028 H   0  0  0  0  0  0  0  0  0  0  0  0
   95.6181   53.8233  267.9468 H   0  0  0  0  0  0  0  0  0  0  0  0
   92.1419   50.7825  269.8902 H   0  0  0  0  0  0  0  0  0  0  0  0
   94.7150   55.6345  270.1926 H   0  0  0  0  0  0  0  0  0  0  0  0
   93.0789   55.1325  272.1942 H   0  0  0  0  0  0  0  0  0  0  0  0
   86.9040   45.6942  264.3312 H   0  0  0  0  0  0  0  0  0  0  0  0
   88.2666   45.3906  262.3257 H   0  0  0  0  0  0  0  0  0  0  0  0
   91.4260   47.5263  264.0219 H   0  0  0  0  0  0  0  0  0  0  0  0
   87.0502   47.8460  268.1024 H   0  0  0  0  0  0  0  0  0  0  0  0
   85.4970   46.9554  268.2252 H   0  0  0  0  0  0  0  0  0  0  0  0
   91.6189   53.3276  273.0105 H   0  0  0  0  0  0  0  0  0  0  0  0
   90.8542   52.3912  271.6820 H   0  0  0  0  0  0  0  0  0  0  0  0
   92.2435   51.6980  272.5854 H   0  0  0  0  0  0  0  0  0  0  0  0
   86.1349   44.0002  268.5368 H   0  0  0  0  0  0  0  0  0  0  0  0
   86.7116   45.3721  269.5428 H   0  0  0  0  0  0  0  0  0  0  0  0
   84.8572   44.0292  270.6078 H   0  0  0  0  0  0  0  0  0  0  0  0
   84.4656   45.7697  270.3980 H   0  0  0  0  0  0  0  0  0  0  0  0
   82.2270   45.0697  267.6014 H   0  0  0  0  0  0  0  0  0  0  0  0
   82.9081   46.3864  268.6158 H   0  0  0  0  0  0  0  0  0  0  0  0
   83.9900   46.4457  266.4389 H   0  0  0  0  0  0  0  0  0  0  0  0
   84.3755   44.6937  266.5320 H   0  0  0  0  0  0  0  0  0  0  0  0
  1  2  1  0  0  0  0
  1  5  2  0  0  0  0
  2  3  1  0  0  0  0
  2 12  2  0  0  0  0
  3  4  2  0  0  0  0
  4  6  1  0  0  0  0
  4 11  1  0  0  0  0
  5  6  1  0  0  0  0
  5 10  1  0  0  0  0
  6  7  2  0  0  0  0
  7  8  1  0  0  0  0
  8  9  2  0  0  0  0
  9 10  1  0  0  0  0
 11 13  2  0  0  0  0
 11 15  1  0  0  0  0
 12 21  1  0  0  0  0
 13 14  1  0  0  0  0
 14 17  2  0  0  0  0
 15 16  2  0  0  0  0
 16 17  1  0  0  0  0
 16 20  1  0  0  0  0
 17 18  1  0  0  0  0
 18 19  2  0  0  0  0
 19 20  1  0  0  0  0
 20 31  1  0  0  0  0
 21 22  2  0  0  0  0
 21 26  1  0  0  0  0
 22 23  1  0  0  0  0
 22 27  1  0  0  0  0
 23 24  2  0  0  0  0
 24 25  1  0  0  0  0
 25 26  2  0  0  0  0
 27 28  1  0  0  0  0
 27 29  2  0  0  0  0
 29 30  1  0  0  0  0
 30 32  1  0  0  0  0
 30 36  1  0  0  0  0
 32 33  1  0  0  0  0
 33 34  1  0  0  0  0
 34 35  1  0  0  0  0
 35 36  1  0  0  0  0
  1 37  1  0  0  0  0
  3 38  1  0  0  0  0
  8 39  1  0  0  0  0
  9 40  1  0  0  0  0
 10 41  1  0  0  0  0
 13 42  1  0  0  0  0
 14 43  1  0  0  0  0
 15 44  1  0  0  0  0
 18 45  1  0  0  0  0
 19 46  1  0  0  0  0
 23 47  1  0  0  0  0
 24 48  1  0  0  0  0
 26 49  1  0  0  0  0
 28 50  1  0  0  0  0
 30 51  1  0  0  0  0
 31 52  1  0  0  0  0
 31 53  1  0  0  0  0
 31 54  1  0  0  0  0
 32 55  1  0  0  0  0
 32 56  1  0  0  0  0
 33 57  1  0  0  0  0
 33 58  1  0  0  0  0
 35 59  1  0  0  0  0
 35 60  1  0  0  0  0
 36 61  1  0  0  0  0
 36 62  1  0  0  0  0
M  END
> <ID>
37

> <IC50[uM]>
0.047

$$$$
37
  -OEChem-05192314313D
 Structure written by MMmdl.
 62 67  0     0  0  0  0  0  0999 V2000
   92.5682   47.3462  266.4833 C   0  0  0  0  0  0  0  0  0  0  0  0
   91.6181   48.3452  266.6664 C   0  0  0  0  0  0  0  0  0  0  0  0
   91.9789   49.5400  267.2763 C   0  0  0  0  0  0  0  0  0  0  0  0
   93.2937   49.7963  267.6790 C   0  0  0  0  0  0  0  0  0  0  0  0
   93.8967   47.5399  266.9140 C   0  0  0  0  0  0  0  0  0  0  0  0
   94.2761   48.7809  267.5103 C   0  0  0  0  0  0  0  0  0  0  0  0
   95.5636   48.9666  267.9328 N   0  0  0  0  0  0  0  0  0  0  0  0
   96.4501   47.9585  267.7397 C   0  0  0  0  0  0  0  0  0  0  0  0
   96.0608   46.7452  267.1831 C   0  0  0  0  0  0  0  0  0  0  0  0
   94.7948   46.5277  266.7655 N   0  0  0  0  0  0  0  0  0  0  0  0
   93.5976   51.0957  268.3217 C   0  0  0  0  0  0  0  0  0  0  0  0
   90.2871   48.1511  266.2958 N   0  0  0  0  0  0  0  0  0  0  0  0
   94.5711   51.9448  267.7868 C   0  0  0  0  0  0  0  0  0  0  0  0
   94.8615   53.1780  268.3681 C   0  0  0  0  0  0  0  0  0  0  0  0
   92.8931   51.4384  269.4756 C   0  0  0  0  0  0  0  0  0  0  0  0
   93.1961   52.6578  270.0710 C   0  0  0  0  0  0  0  0  0  0  0  0
   94.1500   53.5596  269.5095 C   0  0  0  0  0  0  0  0  0  0  0  0
   94.1496   54.7271  270.3451 C   0  0  0  0  0  0  0  0  0  0  0  0
   93.2853   54.4571  271.3772 C   0  0  0  0  0  0  0  0  0  0  0  0
   92.7216   53.2230  271.2344 N   0  0  0  0  0  0  0  0  0  0  0  0
   89.7168   47.3542  265.2854 C   0  0  0  0  0  0  0  0  0  0  0  0
   88.4155   46.8174  265.3915 C   0  0  0  0  0  0  0  0  0  0  0  0
   87.9008   46.1080  264.2919 C   0  0  0  0  0  0  0  0  0  0  0  0
   88.6799   45.9426  263.1569 C   0  0  0  0  0  0  0  0  0  0  0  0
   89.9312   46.4387  263.0407 N   0  0  0  0  0  0  0  0  0  0  0  0
   90.4252   47.1278  264.0989 C   0  0  0  0  0  0  0  0  0  0  0  0
   87.5601   46.9683  266.6297 C   0  0  0  0  0  0  0  0  0  0  0  0
   87.6700   47.9323  267.3876 O   0  0  0  0  0  0  0  0  0  0  0  0
   86.6670   45.9862  266.8167 N   0  0  0  0  0  0  0  0  0  0  0  0
   85.5963   45.9500  267.7902 C   0  0  0  0  0  0  0  0  0  0  0  0
   91.8041   52.6238  272.1856 C   0  0  0  0  0  0  0  0  0  0  0  0
   85.8697   44.9843  268.9505 C   0  0  0  0  0  0  0  0  0  0  0  0
   84.6496   44.8209  269.8728 C   0  0  0  0  0  0  0  0  0  0  0  0
   83.4889   44.4695  269.1237 O   0  0  0  0  0  0  0  0  0  0  0  0
   83.1249   45.4242  268.1288 C   0  0  0  0  0  0  0  0  0  0  0  0
   84.2584   45.6197  267.1140 C   0  0  0  0  0  0  0  0  0  0  0  0
   92.1934   46.4539  267.0062 H   0  0  0  0  0  0  0  0  0  0  0  0
   92.6123   47.1463  265.4025 H   0  0  0  0  0  0  0  0  0  0  0  0
   91.2226   50.2925  267.4444 H   0  0  0  0  0  0  0  0  0  0  0  0
   97.4820   48.1014  268.0247 H   0  0  0  0  0  0  0  0  0  0  0  0
   96.7904   45.9554  267.0820 H   0  0  0  0  0  0  0  0  0  0  0  0
   95.1105   51.6382  266.9028 H   0  0  0  0  0  0  0  0  0  0  0  0
   95.6181   53.8233  267.9468 H   0  0  0  0  0  0  0  0  0  0  0  0
   92.1419   50.7825  269.8902 H   0  0  0  0  0  0  0  0  0  0  0  0
   94.7150   55.6345  270.1926 H   0  0  0  0  0  0  0  0  0  0  0  0
   93.0789   55.1325  272.1942 H   0  0  0  0  0  0  0  0  0  0  0  0
   86.9040   45.6942  264.3312 H   0  0  0  0  0  0  0  0  0  0  0  0
   88.2666   45.3906  262.3257 H   0  0  0  0  0  0  0  0  0  0  0  0
   91.4260   47.5263  264.0219 H   0  0  0  0  0  0  0  0  0  0  0  0
   86.7496   45.1902  266.2171 H   0  0  0  0  0  0  0  0  0  0  0  0
   85.4970   46.9554  268.2252 H   0  0  0  0  0  0  0  0  0  0  0  0
   91.6189   53.3276  273.0105 H   0  0  0  0  0  0  0  0  0  0  0  0
   90.8542   52.3912  271.6820 H   0  0  0  0  0  0  0  0  0  0  0  0
   92.2435   51.6980  272.5854 H   0  0  0  0  0  0  0  0  0  0  0  0
   86.1349   44.0002  268.5368 H   0  0  0  0  0  0  0  0  0  0  0  0
   86.7116   45.3721  269.5428 H   0  0  0  0  0  0  0  0  0  0  0  0
   84.8572   44.0292  270.6078 H   0  0  0  0  0  0  0  0  0  0  0  0
   84.4656   45.7697  270.3980 H   0  0  0  0  0  0  0  0  0  0  0  0
   82.2270   45.0697  267.6014 H   0  0  0  0  0  0  0  0  0  0  0  0
   82.9081   46.3864  268.6158 H   0  0  0  0  0  0  0  0  0  0  0  0
   83.9900   46.4457  266.4389 H   0  0  0  0  0  0  0  0  0  0  0  0
   84.3755   44.6937  266.5320 H   0  0  0  0  0  0  0  0  0  0  0  0
  1  2  1  0  0  0  0
  1  5  1  0  0  0  0
  2  3  1  0  0  0  0
  2 12  2  0  0  0  0
  3  4  2  0  0  0  0
  4  6  1  0  0  0  0
  4 11  1  0  0  0  0
  5  6  2  0  0  0  0
  5 10  1  0  0  0  0
  6  7  1  0  0  0  0
  7  8  2  0  0  0  0
  8  9  1  0  0  0  0
  9 10  2  0  0  0  0
 11 13  2  0  0  0  0
 11 15  1  0  0  0  0
 12 21  1  0  0  0  0
 13 14  1  0  0  0  0
 14 17  2  0  0  0  0
 15 16  2  0  0  0  0
 16 17  1  0  0  0  0
 16 20  1  0  0  0  0
 17 18  1  0  0  0  0
 18 19  2  0  0  0  0
 19 20  1  0  0  0  0
 20 31  1  0  0  0  0
 21 22  2  0  0  0  0
 21 26  1  0  0  0  0
 22 23  1  0  0  0  0
 22 27  1  0  0  0  0
 23 24  2  0  0  0  0
 24 25  1  0  0  0  0
 25 26  2  0  0  0  0
 27 28  2  0  0  0  0
 27 29  1  0  0  0  0
 29 30  1  0  0  0  0
 30 32  1  0  0  0  0
 30 36  1  0  0  0  0
 32 33  1  0  0  0  0
 33 34  1  0  0  0  0
 34 35  1  0  0  0  0
 35 36  1  0  0  0  0
  1 37  1  0  0  0  0
  1 38  1  0  0  0  0
  3 39  1  0  0  0  0
  8 40  1  0  0  0  0
  9 41  1  0  0  0  0
 13 42  1  0  0  0  0
 14 43  1  0  0  0  0
 15 44  1  0  0  0  0
 18 45  1  0  0  0  0
 19 46  1  0  0  0  0
 23 47  1  0  0  0  0
 24 48  1  0  0  0  0
 26 49  1  0  0  0  0
 29 50  1  0  0  0  0
 30 51  1  0  0  0  0
 31 52  1  0  0  0  0
 31 53  1  0  0  0  0
 31 54  1  0  0  0  0
 32 55  1  0  0  0  0
 32 56  1  0  0  0  0
 33 57  1  0  0  0  0
 33 58  1  0  0  0  0
 35 59  1  0  0  0  0
 35 60  1  0  0  0  0
 36 61  1  0  0  0  0
 36 62  1  0  0  0  0
M  END
> <ID>
37

> <IC50[uM]>
0.047

$$$$
37
  -OEChem-05192314313D
 Structure written by MMmdl.
 62 67  0     0  0  0  0  0  0999 V2000
   92.5682   47.3462  266.4833 C   0  0  0  0  0  0  0  0  0  0  0  0
   91.6181   48.3452  266.6664 C   0  0  0  0  0  0  0  0  0  0  0  0
   91.9789   49.5400  267.2763 C   0  0  0  0  0  0  0  0  0  0  0  0
   93.2937   49.7963  267.6790 C   0  0  0  0  0  0  0  0  0  0  0  0
   93.8967   47.5399  266.9140 C   0  0  0  0  0  0  0  0  0  0  0  0
   94.2761   48.7809  267.5103 C   0  0  0  0  0  0  0  0  0  0  0  0
   95.5636   48.9666  267.9328 N   0  0  0  0  0  0  0  0  0  0  0  0
   96.4501   47.9585  267.7397 C   0  0  0  0  0  0  0  0  0  0  0  0
   96.0608   46.7452  267.1831 C   0  0  0  0  0  0  0  0  0  0  0  0
   94.7948   46.5277  266.7655 N   0  0  0  0  0  0  0  0  0  0  0  0
   93.5976   51.0957  268.3217 C   0  0  0  0  0  0  0  0  0  0  0  0
   90.2871   48.1511  266.2958 N   0  0  0  0  0  0  0  0  0  0  0  0
   94.5711   51.9448  267.7868 C   0  0  0  0  0  0  0  0  0  0  0  0
   94.8615   53.1780  268.3681 C   0  0  0  0  0  0  0  0  0  0  0  0
   92.8931   51.4384  269.4756 C   0  0  0  0  0  0  0  0  0  0  0  0
   93.1961   52.6578  270.0710 C   0  0  0  0  0  0  0  0  0  0  0  0
   94.1500   53.5596  269.5095 C   0  0  0  0  0  0  0  0  0  0  0  0
   94.1496   54.7271  270.3451 C   0  0  0  0  0  0  0  0  0  0  0  0
   93.2853   54.4571  271.3772 C   0  0  0  0  0  0  0  0  0  0  0  0
   92.7216   53.2230  271.2344 N   0  0  0  0  0  0  0  0  0  0  0  0
   89.7168   47.3542  265.2854 C   0  0  0  0  0  0  0  0  0  0  0  0
   88.4155   46.8174  265.3915 C   0  0  0  0  0  0  0  0  0  0  0  0
   87.9008   46.1080  264.2919 C   0  0  0  0  0  0  0  0  0  0  0  0
   88.6799   45.9426  263.1569 C   0  0  0  0  0  0  0  0  0  0  0  0
   89.9312   46.4387  263.0407 N   0  0  0  0  0  0  0  0  0  0  0  0
   90.4252   47.1278  264.0989 C   0  0  0  0  0  0  0  0  0  0  0  0
   87.5601   46.9683  266.6297 C   0  0  0  0  0  0  0  0  0  0  0  0
   87.6700   47.9323  267.3876 O   0  0  0  0  0  0  0  0  0  0  0  0
   86.6670   45.9862  266.8167 N   0  0  0  0  0  0  0  0  0  0  0  0
   85.5963   45.9500  267.7902 C   0  0  0  0  0  0  0  0  0  0  0  0
   91.8041   52.6238  272.1856 C   0  0  0  0  0  0  0  0  0  0  0  0
   85.8697   44.9843  268.9505 C   0  0  0  0  0  0  0  0  0  0  0  0
   84.6496   44.8209  269.8728 C   0  0  0  0  0  0  0  0  0  0  0  0
   83.4889   44.4695  269.1237 O   0  0  0  0  0  0  0  0  0  0  0  0
   83.1249   45.4242  268.1288 C   0  0  0  0  0  0  0  0  0  0  0  0
   84.2584   45.6197  267.1140 C   0  0  0  0  0  0  0  0  0  0  0  0
   92.1934   46.4539  267.0062 H   0  0  0  0  0  0  0  0  0  0  0  0
   92.6123   47.1463  265.4025 H   0  0  0  0  0  0  0  0  0  0  0  0
   91.2226   50.2925  267.4444 H   0  0  0  0  0  0  0  0  0  0  0  0
   97.4820   48.1014  268.0247 H   0  0  0  0  0  0  0  0  0  0  0  0
   96.7904   45.9554  267.0820 H   0  0  0  0  0  0  0  0  0  0  0  0
   95.1105   51.6382  266.9028 H   0  0  0  0  0  0  0  0  0  0  0  0
   95.6181   53.8233  267.9468 H   0  0  0  0  0  0  0  0  0  0  0  0
   92.1419   50.7825  269.8902 H   0  0  0  0  0  0  0  0  0  0  0  0
   94.7150   55.6345  270.1926 H   0  0  0  0  0  0  0  0  0  0  0  0
   93.0789   55.1325  272.1942 H   0  0  0  0  0  0  0  0  0  0  0  0
   86.9040   45.6942  264.3312 H   0  0  0  0  0  0  0  0  0  0  0  0
   88.2666   45.3906  262.3257 H   0  0  0  0  0  0  0  0  0  0  0  0
   91.4260   47.5263  264.0219 H   0  0  0  0  0  0  0  0  0  0  0  0
   87.0502   47.8460  268.1024 H   0  0  0  0  0  0  0  0  0  0  0  0
   85.4970   46.9554  268.2252 H   0  0  0  0  0  0  0  0  0  0  0  0
   91.6189   53.3276  273.0105 H   0  0  0  0  0  0  0  0  0  0  0  0
   90.8542   52.3912  271.6820 H   0  0  0  0  0  0  0  0  0  0  0  0
   92.2435   51.6980  272.5854 H   0  0  0  0  0  0  0  0  0  0  0  0
   86.1349   44.0002  268.5368 H   0  0  0  0  0  0  0  0  0  0  0  0
   86.7116   45.3721  269.5428 H   0  0  0  0  0  0  0  0  0  0  0  0
   84.8572   44.0292  270.6078 H   0  0  0  0  0  0  0  0  0  0  0  0
   84.4656   45.7697  270.3980 H   0  0  0  0  0  0  0  0  0  0  0  0
   82.2270   45.0697  267.6014 H   0  0  0  0  0  0  0  0  0  0  0  0
   82.9081   46.3864  268.6158 H   0  0  0  0  0  0  0  0  0  0  0  0
   83.9900   46.4457  266.4389 H   0  0  0  0  0  0  0  0  0  0  0  0
   84.3755   44.6937  266.5320 H   0  0  0  0  0  0  0  0  0  0  0  0
  1  2  1  0  0  0  0
  1  5  1  0  0  0  0
  2  3  1  0  0  0  0
  2 12  2  0  0  0  0
  3  4  2  0  0  0  0
  4  6  1  0  0  0  0
  4 11  1  0  0  0  0
  5  6  2  0  0  0  0
  5 10  1  0  0  0  0
  6  7  1  0  0  0  0
  7  8  2  0  0  0  0
  8  9  1  0  0  0  0
  9 10  2  0  0  0  0
 11 13  2  0  0  0  0
 11 15  1  0  0  0  0
 12 21  1  0  0  0  0
 13 14  1  0  0  0  0
 14 17  2  0  0  0  0
 15 16  2  0  0  0  0
 16 17  1  0  0  0  0
 16 20  1  0  0  0  0
 17 18  1  0  0  0  0
 18 19  2  0  0  0  0
 19 20  1  0  0  0  0
 20 31  1  0  0  0  0
 21 22  2  0  0  0  0
 21 26  1  0  0  0  0
 22 23  1  0  0  0  0
 22 27  1  0  0  0  0
 23 24  2  0  0  0  0
 24 25  1  0  0  0  0
 25 26  2  0  0  0  0
 27 28  1  0  0  0  0
 27 29  2  0  0  0  0
 29 30  1  0  0  0  0
 30 32  1  0  0  0  0
 30 36  1  0  0  0  0
 32 33  1  0  0  0  0
 33 34  1  0  0  0  0
 34 35  1  0  0  0  0
 35 36  1  0  0  0  0
  1 37  1  0  0  0  0
  1 38  1  0  0  0  0
  3 39  1  0  0  0  0
  8 40  1  0  0  0  0
  9 41  1  0  0  0  0
 13 42  1  0  0  0  0
 14 43  1  0  0  0  0
 15 44  1  0  0  0  0
 18 45  1  0  0  0  0
 19 46  1  0  0  0  0
 23 47  1  0  0  0  0
 24 48  1  0  0  0  0
 26 49  1  0  0  0  0
 28 50  1  0  0  0  0
 30 51  1  0  0  0  0
 31 52  1  0  0  0  0
 31 53  1  0  0  0  0
 31 54  1  0  0  0  0
 32 55  1  0  0  0  0
 32 56  1  0  0  0  0
 33 57  1  0  0  0  0
 33 58  1  0  0  0  0
 35 59  1  0  0  0  0
 35 60  1  0  0  0  0
 36 61  1  0  0  0  0
 36 62  1  0  0  0  0
M  END
> <ID>
37

> <IC50[uM]>
0.047

$$$$
37
  -OEChem-05192314313D
 Structure written by MMmdl.
 62 67  0     0  0  0  0  0  0999 V2000
   92.5682   47.3462  266.4833 C   0  0  0  0  0  0  0  0  0  0  0  0
   91.6181   48.3452  266.6664 C   0  0  0  0  0  0  0  0  0  0  0  0
   91.9789   49.5400  267.2763 C   0  0  0  0  0  0  0  0  0  0  0  0
   93.2937   49.7963  267.6790 C   0  0  0  0  0  0  0  0  0  0  0  0
   93.8967   47.5399  266.9140 C   0  0  0  0  0  0  0  0  0  0  0  0
   94.2761   48.7809  267.5103 C   0  0  0  0  0  0  0  0  0  0  0  0
   95.5636   48.9666  267.9328 N   0  0  0  0  0  0  0  0  0  0  0  0
   96.4501   47.9585  267.7397 C   0  0  0  0  0  0  0  0  0  0  0  0
   96.0608   46.7452  267.1831 C   0  0  0  0  0  0  0  0  0  0  0  0
   94.7948   46.5277  266.7655 N   0  0  0  0  0  0  0  0  0  0  0  0
   93.5976   51.0957  268.3217 C   0  0  0  0  0  0  0  0  0  0  0  0
   90.2871   48.1511  266.2958 N   0  0  0  0  0  0  0  0  0  0  0  0
   94.5711   51.9448  267.7868 C   0  0  0  0  0  0  0  0  0  0  0  0
   94.8615   53.1780  268.3681 C   0  0  0  0  0  0  0  0  0  0  0  0
   92.8931   51.4384  269.4756 C   0  0  0  0  0  0  0  0  0  0  0  0
   93.1961   52.6578  270.0710 C   0  0  0  0  0  0  0  0  0  0  0  0
   94.1500   53.5596  269.5095 C   0  0  0  0  0  0  0  0  0  0  0  0
   94.1496   54.7271  270.3451 C   0  0  0  0  0  0  0  0  0  0  0  0
   93.2853   54.4571  271.3772 C   0  0  0  0  0  0  0  0  0  0  0  0
   92.7216   53.2230  271.2344 N   0  0  0  0  0  0  0  0  0  0  0  0
   89.7168   47.3542  265.2854 C   0  0  0  0  0  0  0  0  0  0  0  0
   88.4155   46.8174  265.3915 C   0  0  0  0  0  0  0  0  0  0  0  0
   87.9008   46.1080  264.2919 C   0  0  0  0  0  0  0  0  0  0  0  0
   88.6799   45.9426  263.1569 C   0  0  0  0  0  0  0  0  0  0  0  0
   89.9312   46.4387  263.0407 N   0  0  0  0  0  0  0  0  0  0  0  0
   90.4252   47.1278  264.0989 C   0  0  0  0  0  0  0  0  0  0  0  0
   87.5601   46.9683  266.6297 C   0  0  0  0  0  0  0  0  0  0  0  0
   87.6700   47.9323  267.3876 O   0  0  0  0  0  0  0  0  0  0  0  0
   86.6670   45.9862  266.8167 N   0  0  0  0  0  0  0  0  0  0  0  0
   85.5963   45.9500  267.7902 C   0  0  0  0  0  0  0  0  0  0  0  0
   91.8041   52.6238  272.1856 C   0  0  0  0  0  0  0  0  0  0  0  0
   85.8697   44.9843  268.9505 C   0  0  0  0  0  0  0  0  0  0  0  0
   84.6496   44.8209  269.8728 C   0  0  0  0  0  0  0  0  0  0  0  0
   83.4889   44.4695  269.1237 O   0  0  0  0  0  0  0  0  0  0  0  0
   83.1249   45.4242  268.1288 C   0  0  0  0  0  0  0  0  0  0  0  0
   84.2584   45.6197  267.1140 C   0  0  0  0  0  0  0  0  0  0  0  0
   92.2870   46.4176  266.0089 H   0  0  0  0  0  0  0  0  0  0  0  0
   91.7110   50.3399  266.5703 H   0  0  0  0  0  0  0  0  0  0  0  0
   91.3574   49.6251  268.1799 H   0  0  0  0  0  0  0  0  0  0  0  0
   97.4820   48.1014  268.0247 H   0  0  0  0  0  0  0  0  0  0  0  0
   96.7904   45.9554  267.0820 H   0  0  0  0  0  0  0  0  0  0  0  0
   95.1105   51.6382  266.9028 H   0  0  0  0  0  0  0  0  0  0  0  0
   95.6181   53.8233  267.9468 H   0  0  0  0  0  0  0  0  0  0  0  0
   92.1419   50.7825  269.8902 H   0  0  0  0  0  0  0  0  0  0  0  0
   94.7150   55.6345  270.1926 H   0  0  0  0  0  0  0  0  0  0  0  0
   93.0789   55.1325  272.1942 H   0  0  0  0  0  0  0  0  0  0  0  0
   86.9040   45.6942  264.3312 H   0  0  0  0  0  0  0  0  0  0  0  0
   88.2666   45.3906  262.3257 H   0  0  0  0  0  0  0  0  0  0  0  0
   91.4260   47.5263  264.0219 H   0  0  0  0  0  0  0  0  0  0  0  0
   86.7496   45.1902  266.2171 H   0  0  0  0  0  0  0  0  0  0  0  0
   85.4970   46.9554  268.2252 H   0  0  0  0  0  0  0  0  0  0  0  0
   91.6189   53.3276  273.0105 H   0  0  0  0  0  0  0  0  0  0  0  0
   90.8542   52.3912  271.6820 H   0  0  0  0  0  0  0  0  0  0  0  0
   92.2435   51.6980  272.5854 H   0  0  0  0  0  0  0  0  0  0  0  0
   86.1349   44.0002  268.5368 H   0  0  0  0  0  0  0  0  0  0  0  0
   86.7116   45.3721  269.5428 H   0  0  0  0  0  0  0  0  0  0  0  0
   84.8572   44.0292  270.6078 H   0  0  0  0  0  0  0  0  0  0  0  0
   84.4656   45.7697  270.3980 H   0  0  0  0  0  0  0  0  0  0  0  0
   82.2270   45.0697  267.6014 H   0  0  0  0  0  0  0  0  0  0  0  0
   82.9081   46.3864  268.6158 H   0  0  0  0  0  0  0  0  0  0  0  0
   83.9900   46.4457  266.4389 H   0  0  0  0  0  0  0  0  0  0  0  0
   84.3755   44.6937  266.5320 H   0  0  0  0  0  0  0  0  0  0  0  0
  1  2  1  0  0  0  0
  1  5  2  0  0  0  0
  2  3  1  0  0  0  0
  2 12  2  0  0  0  0
  3  4  1  0  0  0  0
  4  6  2  0  0  0  0
  4 11  1  0  0  0  0
  5  6  1  0  0  0  0
  5 10  1  0  0  0  0
  6  7  1  0  0  0  0
  7  8  2  0  0  0  0
  8  9  1  0  0  0  0
  9 10  2  0  0  0  0
 11 13  2  0  0  0  0
 11 15  1  0  0  0  0
 12 21  1  0  0  0  0
 13 14  1  0  0  0  0
 14 17  2  0  0  0  0
 15 16  2  0  0  0  0
 16 17  1  0  0  0  0
 16 20  1  0  0  0  0
 17 18  1  0  0  0  0
 18 19  2  0  0  0  0
 19 20  1  0  0  0  0
 20 31  1  0  0  0  0
 21 22  2  0  0  0  0
 21 26  1  0  0  0  0
 22 23  1  0  0  0  0
 22 27  1  0  0  0  0
 23 24  2  0  0  0  0
 24 25  1  0  0  0  0
 25 26  2  0  0  0  0
 27 28  2  0  0  0  0
 27 29  1  0  0  0  0
 29 30  1  0  0  0  0
 30 32  1  0  0  0  0
 30 36  1  0  0  0  0
 32 33  1  0  0  0  0
 33 34  1  0  0  0  0
 34 35  1  0  0  0  0
 35 36  1  0  0  0  0
  1 37  1  0  0  0  0
  3 38  1  0  0  0  0
  3 39  1  0  0  0  0
  8 40  1  0  0  0  0
  9 41  1  0  0  0  0
 13 42  1  0  0  0  0
 14 43  1  0  0  0  0
 15 44  1  0  0  0  0
 18 45  1  0  0  0  0
 19 46  1  0  0  0  0
 23 47  1  0  0  0  0
 24 48  1  0  0  0  0
 26 49  1  0  0  0  0
 29 50  1  0  0  0  0
 30 51  1  0  0  0  0
 31 52  1  0  0  0  0
 31 53  1  0  0  0  0
 31 54  1  0  0  0  0
 32 55  1  0  0  0  0
 32 56  1  0  0  0  0
 33 57  1  0  0  0  0
 33 58  1  0  0  0  0
 35 59  1  0  0  0  0
 35 60  1  0  0  0  0
 36 61  1  0  0  0  0
 36 62  1  0  0  0  0
M  END
> <ID>
37

> <IC50[uM]>
0.047

$$$$
37
  -OEChem-05192314313D
 Structure written by MMmdl.
 62 67  0     0  0  0  0  0  0999 V2000
   92.5682   47.3462  266.4833 C   0  0  0  0  0  0  0  0  0  0  0  0
   91.6181   48.3452  266.6664 C   0  0  0  0  0  0  0  0  0  0  0  0
   91.9789   49.5400  267.2763 C   0  0  0  0  0  0  0  0  0  0  0  0
   93.2937   49.7963  267.6790 C   0  0  0  0  0  0  0  0  0  0  0  0
   93.8967   47.5399  266.9140 C   0  0  0  0  0  0  0  0  0  0  0  0
   94.2761   48.7809  267.5103 C   0  0  0  0  0  0  0  0  0  0  0  0
   95.5636   48.9666  267.9328 N   0  0  0  0  0  0  0  0  0  0  0  0
   96.4501   47.9585  267.7397 C   0  0  0  0  0  0  0  0  0  0  0  0
   96.0608   46.7452  267.1831 C   0  0  0  0  0  0  0  0  0  0  0  0
   94.7948   46.5277  266.7655 N   0  0  0  0  0  0  0  0  0  0  0  0
   93.5976   51.0957  268.3217 C   0  0  0  0  0  0  0  0  0  0  0  0
   90.2871   48.1511  266.2958 N   0  0  0  0  0  0  0  0  0  0  0  0
   94.5711   51.9448  267.7868 C   0  0  0  0  0  0  0  0  0  0  0  0
   94.8615   53.1780  268.3681 C   0  0  0  0  0  0  0  0  0  0  0  0
   92.8931   51.4384  269.4756 C   0  0  0  0  0  0  0  0  0  0  0  0
   93.1961   52.6578  270.0710 C   0  0  0  0  0  0  0  0  0  0  0  0
   94.1500   53.5596  269.5095 C   0  0  0  0  0  0  0  0  0  0  0  0
   94.1496   54.7271  270.3451 C   0  0  0  0  0  0  0  0  0  0  0  0
   93.2853   54.4571  271.3772 C   0  0  0  0  0  0  0  0  0  0  0  0
   92.7216   53.2230  271.2344 N   0  0  0  0  0  0  0  0  0  0  0  0
   89.7168   47.3542  265.2854 C   0  0  0  0  0  0  0  0  0  0  0  0
   88.4155   46.8174  265.3915 C   0  0  0  0  0  0  0  0  0  0  0  0
   87.9008   46.1080  264.2919 C   0  0  0  0  0  0  0  0  0  0  0  0
   88.6799   45.9426  263.1569 C   0  0  0  0  0  0  0  0  0  0  0  0
   89.9312   46.4387  263.0407 N   0  0  0  0  0  0  0  0  0  0  0  0
   90.4252   47.1278  264.0989 C   0  0  0  0  0  0  0  0  0  0  0  0
   87.5601   46.9683  266.6297 C   0  0  0  0  0  0  0  0  0  0  0  0
   87.6700   47.9323  267.3876 O   0  0  0  0  0  0  0  0  0  0  0  0
   86.6670   45.9862  266.8167 N   0  0  0  0  0  0  0  0  0  0  0  0
   85.5963   45.9500  267.7902 C   0  0  0  0  0  0  0  0  0  0  0  0
   91.8041   52.6238  272.1856 C   0  0  0  0  0  0  0  0  0  0  0  0
   85.8697   44.9843  268.9505 C   0  0  0  0  0  0  0  0  0  0  0  0
   84.6496   44.8209  269.8728 C   0  0  0  0  0  0  0  0  0  0  0  0
   83.4889   44.4695  269.1237 O   0  0  0  0  0  0  0  0  0  0  0  0
   83.1249   45.4242  268.1288 C   0  0  0  0  0  0  0  0  0  0  0  0
   84.2584   45.6197  267.1140 C   0  0  0  0  0  0  0  0  0  0  0  0
   92.2870   46.4176  266.0089 H   0  0  0  0  0  0  0  0  0  0  0  0
   91.7110   50.3399  266.5703 H   0  0  0  0  0  0  0  0  0  0  0  0
   91.3574   49.6251  268.1799 H   0  0  0  0  0  0  0  0  0  0  0  0
   97.4820   48.1014  268.0247 H   0  0  0  0  0  0  0  0  0  0  0  0
   96.7904   45.9554  267.0820 H   0  0  0  0  0  0  0  0  0  0  0  0
   95.1105   51.6382  266.9028 H   0  0  0  0  0  0  0  0  0  0  0  0
   95.6181   53.8233  267.9468 H   0  0  0  0  0  0  0  0  0  0  0  0
   92.1419   50.7825  269.8902 H   0  0  0  0  0  0  0  0  0  0  0  0
   94.7150   55.6345  270.1926 H   0  0  0  0  0  0  0  0  0  0  0  0
   93.0789   55.1325  272.1942 H   0  0  0  0  0  0  0  0  0  0  0  0
   86.9040   45.6942  264.3312 H   0  0  0  0  0  0  0  0  0  0  0  0
   88.2666   45.3906  262.3257 H   0  0  0  0  0  0  0  0  0  0  0  0
   91.4260   47.5263  264.0219 H   0  0  0  0  0  0  0  0  0  0  0  0
   87.0502   47.8460  268.1024 H   0  0  0  0  0  0  0  0  0  0  0  0
   85.4970   46.9554  268.2252 H   0  0  0  0  0  0  0  0  0  0  0  0
   91.6189   53.3276  273.0105 H   0  0  0  0  0  0  0  0  0  0  0  0
   90.8542   52.3912  271.6820 H   0  0  0  0  0  0  0  0  0  0  0  0
   92.2435   51.6980  272.5854 H   0  0  0  0  0  0  0  0  0  0  0  0
   86.1349   44.0002  268.5368 H   0  0  0  0  0  0  0  0  0  0  0  0
   86.7116   45.3721  269.5428 H   0  0  0  0  0  0  0  0  0  0  0  0
   84.8572   44.0292  270.6078 H   0  0  0  0  0  0  0  0  0  0  0  0
   84.4656   45.7697  270.3980 H   0  0  0  0  0  0  0  0  0  0  0  0
   82.2270   45.0697  267.6014 H   0  0  0  0  0  0  0  0  0  0  0  0
   82.9081   46.3864  268.6158 H   0  0  0  0  0  0  0  0  0  0  0  0
   83.9900   46.4457  266.4389 H   0  0  0  0  0  0  0  0  0  0  0  0
   84.3755   44.6937  266.5320 H   0  0  0  0  0  0  0  0  0  0  0  0
  1  2  1  0  0  0  0
  1  5  2  0  0  0  0
  2  3  1  0  0  0  0
  2 12  2  0  0  0  0
  3  4  1  0  0  0  0
  4  6  2  0  0  0  0
  4 11  1  0  0  0  0
  5  6  1  0  0  0  0
  5 10  1  0  0  0  0
  6  7  1  0  0  0  0
  7  8  2  0  0  0  0
  8  9  1  0  0  0  0
  9 10  2  0  0  0  0
 11 13  2  0  0  0  0
 11 15  1  0  0  0  0
 12 21  1  0  0  0  0
 13 14  1  0  0  0  0
 14 17  2  0  0  0  0
 15 16  2  0  0  0  0
 16 17  1  0  0  0  0
 16 20  1  0  0  0  0
 17 18  1  0  0  0  0
 18 19  2  0  0  0  0
 19 20  1  0  0  0  0
 20 31  1  0  0  0  0
 21 22  2  0  0  0  0
 21 26  1  0  0  0  0
 22 23  1  0  0  0  0
 22 27  1  0  0  0  0
 23 24  2  0  0  0  0
 24 25  1  0  0  0  0
 25 26  2  0  0  0  0
 27 28  1  0  0  0  0
 27 29  2  0  0  0  0
 29 30  1  0  0  0  0
 30 32  1  0  0  0  0
 30 36  1  0  0  0  0
 32 33  1  0  0  0  0
 33 34  1  0  0  0  0
 34 35  1  0  0  0  0
 35 36  1  0  0  0  0
  1 37  1  0  0  0  0
  3 38  1  0  0  0  0
  3 39  1  0  0  0  0
  8 40  1  0  0  0  0
  9 41  1  0  0  0  0
 13 42  1  0  0  0  0
 14 43  1  0  0  0  0
 15 44  1  0  0  0  0
 18 45  1  0  0  0  0
 19 46  1  0  0  0  0
 23 47  1  0  0  0  0
 24 48  1  0  0  0  0
 26 49  1  0  0  0  0
 28 50  1  0  0  0  0
 30 51  1  0  0  0  0
 31 52  1  0  0  0  0
 31 53  1  0  0  0  0
 31 54  1  0  0  0  0
 32 55  1  0  0  0  0
 32 56  1  0  0  0  0
 33 57  1  0  0  0  0
 33 58  1  0  0  0  0
 35 59  1  0  0  0  0
 35 60  1  0  0  0  0
 36 61  1  0  0  0  0
 36 62  1  0  0  0  0
M  END
> <ID>
37

> <IC50[uM]>
0.047

$$$$
37
  -OEChem-05192314313D
 Structure written by MMmdl.
 62 67  0     1  0  0  0  0  0999 V2000
   92.5682   47.3462  266.4833 C   0  0  0  0  0  0  0  0  0  0  0  0
   91.6181   48.3452  266.6664 C   0  0  0  0  0  0  0  0  0  0  0  0
   91.9789   49.5400  267.2763 C   0  0  0  0  0  0  0  0  0  0  0  0
   93.2937   49.7963  267.6790 C   0  0  0  0  0  0  0  0  0  0  0  0
   93.8967   47.5399  266.9140 C   0  0  0  0  0  0  0  0  0  0  0  0
   94.2761   48.7809  267.5103 C   0  0  0  0  0  0  0  0  0  0  0  0
   95.5636   48.9666  267.9328 N   0  0  0  0  0  0  0  0  0  0  0  0
   96.4501   47.9585  267.7397 C   0  0  0  0  0  0  0  0  0  0  0  0
   96.0608   46.7452  267.1831 C   0  0  0  0  0  0  0  0  0  0  0  0
   94.7948   46.5277  266.7655 N   0  0  0  0  0  0  0  0  0  0  0  0
   93.5976   51.0957  268.3217 C   0  0  0  0  0  0  0  0  0  0  0  0
   90.2871   48.1511  266.2958 N   0  0  0  0  0  0  0  0  0  0  0  0
   94.5711   51.9448  267.7868 C   0  0  0  0  0  0  0  0  0  0  0  0
   94.8615   53.1780  268.3681 C   0  0  0  0  0  0  0  0  0  0  0  0
   92.8931   51.4384  269.4756 C   0  0  0  0  0  0  0  0  0  0  0  0
   93.1961   52.6578  270.0710 C   0  0  0  0  0  0  0  0  0  0  0  0
   94.1500   53.5596  269.5095 C   0  0  0  0  0  0  0  0  0  0  0  0
   94.1496   54.7271  270.3451 C   0  0  0  0  0  0  0  0  0  0  0  0
   93.2853   54.4571  271.3772 C   0  0  0  0  0  0  0  0  0  0  0  0
   92.7216   53.2230  271.2344 N   0  0  0  0  0  0  0  0  0  0  0  0
   89.7168   47.3542  265.2854 C   0  0  0  0  0  0  0  0  0  0  0  0
   88.4155   46.8174  265.3915 C   0  0  3  0  0  0  0  0  0  0  0  0
   87.9008   46.1080  264.2919 C   0  0  0  0  0  0  0  0  0  0  0  0
   88.6799   45.9426  263.1569 C   0  0  0  0  0  0  0  0  0  0  0  0
   89.9312   46.4387  263.0407 N   0  0  0  0  0  0  0  0  0  0  0  0
   90.4252   47.1278  264.0989 C   0  0  0  0  0  0  0  0  0  0  0  0
   87.5601   46.9683  266.6297 C   0  0  0  0  0  0  0  0  0  0  0  0
   87.6700   47.9323  267.3876 O   0  0  0  0  0  0  0  0  0  0  0  0
   86.6670   45.9862  266.8167 N   0  0  0  0  0  0  0  0  0  0  0  0
   85.5963   45.9500  267.7902 C   0  0  0  0  0  0  0  0  0  0  0  0
   91.8041   52.6238  272.1856 C   0  0  0  0  0  0  0  0  0  0  0  0
   85.8697   44.9843  268.9505 C   0  0  0  0  0  0  0  0  0  0  0  0
   84.6496   44.8209  269.8728 C   0  0  0  0  0  0  0  0  0  0  0  0
   83.4889   44.4695  269.1237 O   0  0  0  0  0  0  0  0  0  0  0  0
   83.1249   45.4242  268.1288 C   0  0  0  0  0  0  0  0  0  0  0  0
   84.2584   45.6197  267.1140 C   0  0  0  0  0  0  0  0  0  0  0  0
   92.2870   46.4176  266.0089 H   0  0  0  0  0  0  0  0  0  0  0  0
   91.2226   50.2925  267.4444 H   0  0  0  0  0  0  0  0  0  0  0  0
   97.4820   48.1014  268.0247 H   0  0  0  0  0  0  0  0  0  0  0  0
   96.7904   45.9554  267.0820 H   0  0  0  0  0  0  0  0  0  0  0  0
   95.1105   51.6382  266.9028 H   0  0  0  0  0  0  0  0  0  0  0  0
   95.6181   53.8233  267.9468 H   0  0  0  0  0  0  0  0  0  0  0  0
   92.1419   50.7825  269.8902 H   0  0  0  0  0  0  0  0  0  0  0  0
   94.7150   55.6345  270.1926 H   0  0  0  0  0  0  0  0  0  0  0  0
   93.0789   55.1325  272.1942 H   0  0  0  0  0  0  0  0  0  0  0  0
   87.9964   47.7506  264.9870 H   0  0  0  0  0  0  0  0  0  0  0  0
   86.9040   45.6942  264.3312 H   0  0  0  0  0  0  0  0  0  0  0  0
   88.2666   45.3906  262.3257 H   0  0  0  0  0  0  0  0  0  0  0  0
   91.4260   47.5263  264.0219 H   0  0  0  0  0  0  0  0  0  0  0  0
   86.7496   45.1902  266.2171 H   0  0  0  0  0  0  0  0  0  0  0  0
   85.4970   46.9554  268.2252 H   0  0  0  0  0  0  0  0  0  0  0  0
   91.6189   53.3276  273.0105 H   0  0  0  0  0  0  0  0  0  0  0  0
   90.8542   52.3912  271.6820 H   0  0  0  0  0  0  0  0  0  0  0  0
   92.2435   51.6980  272.5854 H   0  0  0  0  0  0  0  0  0  0  0  0
   86.1349   44.0002  268.5368 H   0  0  0  0  0  0  0  0  0  0  0  0
   86.7116   45.3721  269.5428 H   0  0  0  0  0  0  0  0  0  0  0  0
   84.8572   44.0292  270.6078 H   0  0  0  0  0  0  0  0  0  0  0  0
   84.4656   45.7697  270.3980 H   0  0  0  0  0  0  0  0  0  0  0  0
   82.2270   45.0697  267.6014 H   0  0  0  0  0  0  0  0  0  0  0  0
   82.9081   46.3864  268.6158 H   0  0  0  0  0  0  0  0  0  0  0  0
   83.9900   46.4457  266.4389 H   0  0  0  0  0  0  0  0  0  0  0  0
   84.3755   44.6937  266.5320 H   0  0  0  0  0  0  0  0  0  0  0  0
  1  2  2  0  0  0  0
  1  5  1  0  0  0  0
  2  3  1  0  0  0  0
  2 12  1  0  0  0  0
  3  4  2  0  0  0  0
  4  6  1  0  0  0  0
  4 11  1  0  0  0  0
  5  6  2  0  0  0  0
  5 10  1  0  0  0  0
  6  7  1  0  0  0  0
  7  8  2  0  0  0  0
  8  9  1  0  0  0  0
  9 10  2  0  0  0  0
 11 13  2  0  0  0  0
 11 15  1  0  0  0  0
 12 21  2  0  0  0  0
 13 14  1  0  0  0  0
 14 17  2  0  0  0  0
 15 16  2  0  0  0  0
 16 17  1  0  0  0  0
 16 20  1  0  0  0  0
 17 18  1  0  0  0  0
 18 19  2  0  0  0  0
 19 20  1  0  0  0  0
 20 31  1  0  0  0  0
 21 22  1  0  0  0  0
 21 26  1  0  0  0  0
 22 23  1  0  0  0  0
 22 27  1  0  0  0  0
 23 24  2  0  0  0  0
 24 25  1  0  0  0  0
 25 26  2  0  0  0  0
 27 28  2  0  0  0  0
 27 29  1  0  0  0  0
 29 30  1  0  0  0  0
 30 32  1  0  0  0  0
 30 36  1  0  0  0  0
 32 33  1  0  0  0  0
 33 34  1  0  0  0  0
 34 35  1  0  0  0  0
 35 36  1  0  0  0  0
  1 37  1  0  0  0  0
  3 38  1  0  0  0  0
  8 39  1  0  0  0  0
  9 40  1  0  0  0  0
 13 41  1  0  0  0  0
 14 42  1  0  0  0  0
 15 43  1  0  0  0  0
 18 44  1  0  0  0  0
 19 45  1  0  0  0  0
 22 46  1  0  0  0  0
 23 47  1  0  0  0  0
 24 48  1  0  0  0  0
 26 49  1  0  0  0  0
 29 50  1  0  0  0  0
 30 51  1  0  0  0  0
 31 52  1  0  0  0  0
 31 53  1  0  0  0  0
 31 54  1  0  0  0  0
 32 55  1  0  0  0  0
 32 56  1  0  0  0  0
 33 57  1  0  0  0  0
 33 58  1  0  0  0  0
 35 59  1  0  0  0  0
 35 60  1  0  0  0  0
 36 61  1  0  0  0  0
 36 62  1  0  0  0  0
M  END
> <ID>
37

> <IC50[uM]>
0.047

$$$$
37
  -OEChem-05192314313D
 Structure written by MMmdl.
 62 67  0     0  0  0  0  0  0999 V2000
   92.5682   47.3462  266.4833 C   0  0  0  0  0  0  0  0  0  0  0  0
   91.6181   48.3452  266.6664 C   0  0  0  0  0  0  0  0  0  0  0  0
   91.9789   49.5400  267.2763 C   0  0  0  0  0  0  0  0  0  0  0  0
   93.2937   49.7963  267.6790 C   0  0  0  0  0  0  0  0  0  0  0  0
   93.8967   47.5399  266.9140 C   0  0  0  0  0  0  0  0  0  0  0  0
   94.2761   48.7809  267.5103 C   0  0  0  0  0  0  0  0  0  0  0  0
   95.5636   48.9666  267.9328 N   0  0  0  0  0  0  0  0  0  0  0  0
   96.4501   47.9585  267.7397 C   0  0  0  0  0  0  0  0  0  0  0  0
   96.0608   46.7452  267.1831 C   0  0  0  0  0  0  0  0  0  0  0  0
   94.7948   46.5277  266.7655 N   0  0  0  0  0  0  0  0  0  0  0  0
   93.5976   51.0957  268.3217 C   0  0  0  0  0  0  0  0  0  0  0  0
   90.2871   48.1511  266.2958 N   0  0  0  0  0  0  0  0  0  0  0  0
   94.5711   51.9448  267.7868 C   0  0  0  0  0  0  0  0  0  0  0  0
   94.8615   53.1780  268.3681 C   0  0  0  0  0  0  0  0  0  0  0  0
   92.8931   51.4384  269.4756 C   0  0  0  0  0  0  0  0  0  0  0  0
   93.1961   52.6578  270.0710 C   0  0  0  0  0  0  0  0  0  0  0  0
   94.1500   53.5596  269.5095 C   0  0  0  0  0  0  0  0  0  0  0  0
   94.1496   54.7271  270.3451 C   0  0  0  0  0  0  0  0  0  0  0  0
   93.2853   54.4571  271.3772 C   0  0  0  0  0  0  0  0  0  0  0  0
   92.7216   53.2230  271.2344 N   0  0  0  0  0  0  0  0  0  0  0  0
   89.7168   47.3542  265.2854 C   0  0  0  0  0  0  0  0  0  0  0  0
   88.4155   46.8174  265.3915 C   0  0  0  0  0  0  0  0  0  0  0  0
   87.9008   46.1080  264.2919 C   0  0  0  0  0  0  0  0  0  0  0  0
   88.6799   45.9426  263.1569 C   0  0  0  0  0  0  0  0  0  0  0  0
   89.9312   46.4387  263.0407 N   0  0  0  0  0  0  0  0  0  0  0  0
   90.4252   47.1278  264.0989 C   0  0  0  0  0  0  0  0  0  0  0  0
   87.5601   46.9683  266.6297 C   0  0  0  0  0  0  0  0  0  0  0  0
   87.6700   47.9323  267.3876 O   0  0  0  0  0  0  0  0  0  0  0  0
   86.6670   45.9862  266.8167 N   0  0  0  0  0  0  0  0  0  0  0  0
   85.5963   45.9500  267.7902 C   0  0  0  0  0  0  0  0  0  0  0  0
   91.8041   52.6238  272.1856 C   0  0  0  0  0  0  0  0  0  0  0  0
   85.8697   44.9843  268.9505 C   0  0  0  0  0  0  0  0  0  0  0  0
   84.6496   44.8209  269.8728 C   0  0  0  0  0  0  0  0  0  0  0  0
   83.4889   44.4695  269.1237 O   0  0  0  0  0  0  0  0  0  0  0  0
   83.1249   45.4242  268.1288 C   0  0  0  0  0  0  0  0  0  0  0  0
   84.2584   45.6197  267.1140 C   0  0  0  0  0  0  0  0  0  0  0  0
   92.2870   46.4176  266.0089 H   0  0  0  0  0  0  0  0  0  0  0  0
   91.2226   50.2925  267.4444 H   0  0  0  0  0  0  0  0  0  0  0  0
   97.4820   48.1014  268.0247 H   0  0  0  0  0  0  0  0  0  0  0  0
   96.7904   45.9554  267.0820 H   0  0  0  0  0  0  0  0  0  0  0  0
   95.1105   51.6382  266.9028 H   0  0  0  0  0  0  0  0  0  0  0  0
   95.6181   53.8233  267.9468 H   0  0  0  0  0  0  0  0  0  0  0  0
   92.1419   50.7825  269.8902 H   0  0  0  0  0  0  0  0  0  0  0  0
   94.7150   55.6345  270.1926 H   0  0  0  0  0  0  0  0  0  0  0  0
   93.0789   55.1325  272.1942 H   0  0  0  0  0  0  0  0  0  0  0  0
   86.9040   45.6942  264.3312 H   0  0  0  0  0  0  0  0  0  0  0  0
   88.7703   44.8565  263.0080 H   0  0  0  0  0  0  0  0  0  0  0  0
   88.1034   46.3796  262.3282 H   0  0  0  0  0  0  0  0  0  0  0  0
   91.4260   47.5263  264.0219 H   0  0  0  0  0  0  0  0  0  0  0  0
   86.7496   45.1902  266.2171 H   0  0  0  0  0  0  0  0  0  0  0  0
   85.4970   46.9554  268.2252 H   0  0  0  0  0  0  0  0  0  0  0  0
   91.6189   53.3276  273.0105 H   0  0  0  0  0  0  0  0  0  0  0  0
   90.8542   52.3912  271.6820 H   0  0  0  0  0  0  0  0  0  0  0  0
   92.2435   51.6980  272.5854 H   0  0  0  0  0  0  0  0  0  0  0  0
   86.1349   44.0002  268.5368 H   0  0  0  0  0  0  0  0  0  0  0  0
   86.7116   45.3721  269.5428 H   0  0  0  0  0  0  0  0  0  0  0  0
   84.8572   44.0292  270.6078 H   0  0  0  0  0  0  0  0  0  0  0  0
   84.4656   45.7697  270.3980 H   0  0  0  0  0  0  0  0  0  0  0  0
   82.2270   45.0697  267.6014 H   0  0  0  0  0  0  0  0  0  0  0  0
   82.9081   46.3864  268.6158 H   0  0  0  0  0  0  0  0  0  0  0  0
   83.9900   46.4457  266.4389 H   0  0  0  0  0  0  0  0  0  0  0  0
   84.3755   44.6937  266.5320 H   0  0  0  0  0  0  0  0  0  0  0  0
  1  2  2  0  0  0  0
  1  5  1  0  0  0  0
  2  3  1  0  0  0  0
  2 12  1  0  0  0  0
  3  4  2  0  0  0  0
  4  6  1  0  0  0  0
  4 11  1  0  0  0  0
  5  6  2  0  0  0  0
  5 10  1  0  0  0  0
  6  7  1  0  0  0  0
  7  8  2  0  0  0  0
  8  9  1  0  0  0  0
  9 10  2  0  0  0  0
 11 13  2  0  0  0  0
 11 15  1  0  0  0  0
 12 21  2  0  0  0  0
 13 14  1  0  0  0  0
 14 17  2  0  0  0  0
 15 16  2  0  0  0  0
 16 17  1  0  0  0  0
 16 20  1  0  0  0  0
 17 18  1  0  0  0  0
 18 19  2  0  0  0  0
 19 20  1  0  0  0  0
 20 31  1  0  0  0  0
 21 22  1  0  0  0  0
 21 26  1  0  0  0  0
 22 23  2  0  0  0  0
 22 27  1  0  0  0  0
 23 24  1  0  0  0  0
 24 25  1  0  0  0  0
 25 26  2  0  0  0  0
 27 28  2  0  0  0  0
 27 29  1  0  0  0  0
 29 30  1  0  0  0  0
 30 32  1  0  0  0  0
 30 36  1  0  0  0  0
 32 33  1  0  0  0  0
 33 34  1  0  0  0  0
 34 35  1  0  0  0  0
 35 36  1  0  0  0  0
  1 37  1  0  0  0  0
  3 38  1  0  0  0  0
  8 39  1  0  0  0  0
  9 40  1  0  0  0  0
 13 41  1  0  0  0  0
 14 42  1  0  0  0  0
 15 43  1  0  0  0  0
 18 44  1  0  0  0  0
 19 45  1  0  0  0  0
 23 46  1  0  0  0  0
 24 47  1  0  0  0  0
 24 48  1  0  0  0  0
 26 49  1  0  0  0  0
 29 50  1  0  0  0  0
 30 51  1  0  0  0  0
 31 52  1  0  0  0  0
 31 53  1  0  0  0  0
 31 54  1  0  0  0  0
 32 55  1  0  0  0  0
 32 56  1  0  0  0  0
 33 57  1  0  0  0  0
 33 58  1  0  0  0  0
 35 59  1  0  0  0  0
 35 60  1  0  0  0  0
 36 61  1  0  0  0  0
 36 62  1  0  0  0  0
M  END
> <ID>
37

> <IC50[uM]>
0.047

$$$$
37
  -OEChem-05192314313D
 Structure written by MMmdl.
 62 67  0     0  0  0  0  0  0999 V2000
   92.5682   47.3462  266.4833 C   0  0  0  0  0  0  0  0  0  0  0  0
   91.6181   48.3452  266.6664 C   0  0  0  0  0  0  0  0  0  0  0  0
   91.9789   49.5400  267.2763 C   0  0  0  0  0  0  0  0  0  0  0  0
   93.2937   49.7963  267.6790 C   0  0  0  0  0  0  0  0  0  0  0  0
   93.8967   47.5399  266.9140 C   0  0  0  0  0  0  0  0  0  0  0  0
   94.2761   48.7809  267.5103 C   0  0  0  0  0  0  0  0  0  0  0  0
   95.5636   48.9666  267.9328 N   0  0  0  0  0  0  0  0  0  0  0  0
   96.4501   47.9585  267.7397 C   0  0  0  0  0  0  0  0  0  0  0  0
   96.0608   46.7452  267.1831 C   0  0  0  0  0  0  0  0  0  0  0  0
   94.7948   46.5277  266.7655 N   0  0  0  0  0  0  0  0  0  0  0  0
   93.5976   51.0957  268.3217 C   0  0  0  0  0  0  0  0  0  0  0  0
   90.2871   48.1511  266.2958 N   0  0  0  0  0  0  0  0  0  0  0  0
   94.5711   51.9448  267.7868 C   0  0  0  0  0  0  0  0  0  0  0  0
   94.8615   53.1780  268.3681 C   0  0  0  0  0  0  0  0  0  0  0  0
   92.8931   51.4384  269.4756 C   0  0  0  0  0  0  0  0  0  0  0  0
   93.1961   52.6578  270.0710 C   0  0  0  0  0  0  0  0  0  0  0  0
   94.1500   53.5596  269.5095 C   0  0  0  0  0  0  0  0  0  0  0  0
   94.1496   54.7271  270.3451 C   0  0  0  0  0  0  0  0  0  0  0  0
   93.2853   54.4571  271.3772 C   0  0  0  0  0  0  0  0  0  0  0  0
   92.7216   53.2230  271.2344 N   0  0  0  0  0  0  0  0  0  0  0  0
   89.7168   47.3542  265.2854 C   0  0  0  0  0  0  0  0  0  0  0  0
   88.4155   46.8174  265.3915 C   0  0  0  0  0  0  0  0  0  0  0  0
   87.9008   46.1080  264.2919 C   0  0  0  0  0  0  0  0  0  0  0  0
   88.6799   45.9426  263.1569 C   0  0  0  0  0  0  0  0  0  0  0  0
   89.9312   46.4387  263.0407 N   0  0  0  0  0  0  0  0  0  0  0  0
   90.4252   47.1278  264.0989 C   0  0  0  0  0  0  0  0  0  0  0  0
   87.5601   46.9683  266.6297 C   0  0  0  0  0  0  0  0  0  0  0  0
   87.6700   47.9323  267.3876 O   0  0  0  0  0  0  0  0  0  0  0  0
   86.6670   45.9862  266.8167 N   0  0  0  0  0  0  0  0  0  0  0  0
   85.5963   45.9500  267.7902 C   0  0  0  0  0  0  0  0  0  0  0  0
   91.8041   52.6238  272.1856 C   0  0  0  0  0  0  0  0  0  0  0  0
   85.8697   44.9843  268.9505 C   0  0  0  0  0  0  0  0  0  0  0  0
   84.6496   44.8209  269.8728 C   0  0  0  0  0  0  0  0  0  0  0  0
   83.4889   44.4695  269.1237 O   0  0  0  0  0  0  0  0  0  0  0  0
   83.1249   45.4242  268.1288 C   0  0  0  0  0  0  0  0  0  0  0  0
   84.2584   45.6197  267.1140 C   0  0  0  0  0  0  0  0  0  0  0  0
   92.2870   46.4176  266.0089 H   0  0  0  0  0  0  0  0  0  0  0  0
   91.2226   50.2925  267.4444 H   0  0  0  0  0  0  0  0  0  0  0  0
   97.4820   48.1014  268.0247 H   0  0  0  0  0  0  0  0  0  0  0  0
   96.7904   45.9554  267.0820 H   0  0  0  0  0  0  0  0  0  0  0  0
   95.1105   51.6382  266.9028 H   0  0  0  0  0  0  0  0  0  0  0  0
   95.6181   53.8233  267.9468 H   0  0  0  0  0  0  0  0  0  0  0  0
   92.1419   50.7825  269.8902 H   0  0  0  0  0  0  0  0  0  0  0  0
   94.7150   55.6345  270.1926 H   0  0  0  0  0  0  0  0  0  0  0  0
   93.0789   55.1325  272.1942 H   0  0  0  0  0  0  0  0  0  0  0  0
   86.9040   45.6942  264.3312 H   0  0  0  0  0  0  0  0  0  0  0  0
   88.2666   45.3906  262.3257 H   0  0  0  0  0  0  0  0  0  0  0  0
   90.6840   48.1242  263.7113 H   0  0  0  0  0  0  0  0  0  0  0  0
   91.3435   46.6001  264.3960 H   0  0  0  0  0  0  0  0  0  0  0  0
   86.7496   45.1902  266.2171 H   0  0  0  0  0  0  0  0  0  0  0  0
   85.4970   46.9554  268.2252 H   0  0  0  0  0  0  0  0  0  0  0  0
   91.6189   53.3276  273.0105 H   0  0  0  0  0  0  0  0  0  0  0  0
   90.8542   52.3912  271.6820 H   0  0  0  0  0  0  0  0  0  0  0  0
   92.2435   51.6980  272.5854 H   0  0  0  0  0  0  0  0  0  0  0  0
   86.1349   44.0002  268.5368 H   0  0  0  0  0  0  0  0  0  0  0  0
   86.7116   45.3721  269.5428 H   0  0  0  0  0  0  0  0  0  0  0  0
   84.8572   44.0292  270.6078 H   0  0  0  0  0  0  0  0  0  0  0  0
   84.4656   45.7697  270.3980 H   0  0  0  0  0  0  0  0  0  0  0  0
   82.2270   45.0697  267.6014 H   0  0  0  0  0  0  0  0  0  0  0  0
   82.9081   46.3864  268.6158 H   0  0  0  0  0  0  0  0  0  0  0  0
   83.9900   46.4457  266.4389 H   0  0  0  0  0  0  0  0  0  0  0  0
   84.3755   44.6937  266.5320 H   0  0  0  0  0  0  0  0  0  0  0  0
  1  2  2  0  0  0  0
  1  5  1  0  0  0  0
  2  3  1  0  0  0  0
  2 12  1  0  0  0  0
  3  4  2  0  0  0  0
  4  6  1  0  0  0  0
  4 11  1  0  0  0  0
  5  6  2  0  0  0  0
  5 10  1  0  0  0  0
  6  7  1  0  0  0  0
  7  8  2  0  0  0  0
  8  9  1  0  0  0  0
  9 10  2  0  0  0  0
 11 13  2  0  0  0  0
 11 15  1  0  0  0  0
 12 21  2  0  0  0  0
 13 14  1  0  0  0  0
 14 17  2  0  0  0  0
 15 16  2  0  0  0  0
 16 17  1  0  0  0  0
 16 20  1  0  0  0  0
 17 18  1  0  0  0  0
 18 19  2  0  0  0  0
 19 20  1  0  0  0  0
 20 31  1  0  0  0  0
 21 22  1  0  0  0  0
 21 26  1  0  0  0  0
 22 23  2  0  0  0  0
 22 27  1  0  0  0  0
 23 24  1  0  0  0  0
 24 25  2  0  0  0  0
 25 26  1  0  0  0  0
 27 28  2  0  0  0  0
 27 29  1  0  0  0  0
 29 30  1  0  0  0  0
 30 32  1  0  0  0  0
 30 36  1  0  0  0  0
 32 33  1  0  0  0  0
 33 34  1  0  0  0  0
 34 35  1  0  0  0  0
 35 36  1  0  0  0  0
  1 37  1  0  0  0  0
  3 38  1  0  0  0  0
  8 39  1  0  0  0  0
  9 40  1  0  0  0  0
 13 41  1  0  0  0  0
 14 42  1  0  0  0  0
 15 43  1  0  0  0  0
 18 44  1  0  0  0  0
 19 45  1  0  0  0  0
 23 46  1  0  0  0  0
 24 47  1  0  0  0  0
 26 48  1  0  0  0  0
 26 49  1  0  0  0  0
 29 50  1  0  0  0  0
 30 51  1  0  0  0  0
 31 52  1  0  0  0  0
 31 53  1  0  0  0  0
 31 54  1  0  0  0  0
 32 55  1  0  0  0  0
 32 56  1  0  0  0  0
 33 57  1  0  0  0  0
 33 58  1  0  0  0  0
 35 59  1  0  0  0  0
 35 60  1  0  0  0  0
 36 61  1  0  0  0  0
 36 62  1  0  0  0  0
M  END
> <ID>
37

> <IC50[uM]>
0.047

$$$$
37
  -OEChem-05192314313D
 Structure written by MMmdl.
 62 67  0     1  0  0  0  0  0999 V2000
   92.5682   47.3462  266.4833 C   0  0  0  0  0  0  0  0  0  0  0  0
   91.6181   48.3452  266.6664 C   0  0  0  0  0  0  0  0  0  0  0  0
   91.9789   49.5400  267.2763 C   0  0  0  0  0  0  0  0  0  0  0  0
   93.2937   49.7963  267.6790 C   0  0  0  0  0  0  0  0  0  0  0  0
   93.8967   47.5399  266.9140 C   0  0  0  0  0  0  0  0  0  0  0  0
   94.2761   48.7809  267.5103 C   0  0  0  0  0  0  0  0  0  0  0  0
   95.5636   48.9666  267.9328 N   0  0  0  0  0  0  0  0  0  0  0  0
   96.4501   47.9585  267.7397 C   0  0  0  0  0  0  0  0  0  0  0  0
   96.0608   46.7452  267.1831 C   0  0  0  0  0  0  0  0  0  0  0  0
   94.7948   46.5277  266.7655 N   0  0  0  0  0  0  0  0  0  0  0  0
   93.5976   51.0957  268.3217 C   0  0  0  0  0  0  0  0  0  0  0  0
   90.2871   48.1511  266.2958 N   0  0  0  0  0  0  0  0  0  0  0  0
   94.5711   51.9448  267.7868 C   0  0  0  0  0  0  0  0  0  0  0  0
   94.8615   53.1780  268.3681 C   0  0  0  0  0  0  0  0  0  0  0  0
   92.8931   51.4384  269.4756 C   0  0  0  0  0  0  0  0  0  0  0  0
   93.1961   52.6578  270.0710 C   0  0  0  0  0  0  0  0  0  0  0  0
   94.1500   53.5596  269.5095 C   0  0  0  0  0  0  0  0  0  0  0  0
   94.1496   54.7271  270.3451 C   0  0  0  0  0  0  0  0  0  0  0  0
   93.2853   54.4571  271.3772 C   0  0  0  0  0  0  0  0  0  0  0  0
   92.7216   53.2230  271.2344 N   0  0  0  0  0  0  0  0  0  0  0  0
   89.7168   47.3542  265.2854 C   0  0  0  0  0  0  0  0  0  0  0  0
   88.4155   46.8174  265.3915 C   0  0  3  0  0  0  0  0  0  0  0  0
   87.9008   46.1080  264.2919 C   0  0  0  0  0  0  0  0  0  0  0  0
   88.6799   45.9426  263.1569 C   0  0  0  0  0  0  0  0  0  0  0  0
   89.9312   46.4387  263.0407 N   0  0  0  0  0  0  0  0  0  0  0  0
   90.4252   47.1278  264.0989 C   0  0  0  0  0  0  0  0  0  0  0  0
   87.5601   46.9683  266.6297 C   0  0  0  0  0  0  0  0  0  0  0  0
   87.6700   47.9323  267.3876 O   0  0  0  0  0  0  0  0  0  0  0  0
   86.6670   45.9862  266.8167 N   0  0  0  0  0  0  0  0  0  0  0  0
   85.5963   45.9500  267.7902 C   0  0  0  0  0  0  0  0  0  0  0  0
   91.8041   52.6238  272.1856 C   0  0  0  0  0  0  0  0  0  0  0  0
   85.8697   44.9843  268.9505 C   0  0  0  0  0  0  0  0  0  0  0  0
   84.6496   44.8209  269.8728 C   0  0  0  0  0  0  0  0  0  0  0  0
   83.4889   44.4695  269.1237 O   0  0  0  0  0  0  0  0  0  0  0  0
   83.1249   45.4242  268.1288 C   0  0  0  0  0  0  0  0  0  0  0  0
   84.2584   45.6197  267.1140 C   0  0  0  0  0  0  0  0  0  0  0  0
   92.2870   46.4176  266.0089 H   0  0  0  0  0  0  0  0  0  0  0  0
   91.2226   50.2925  267.4444 H   0  0  0  0  0  0  0  0  0  0  0  0
   97.4820   48.1014  268.0247 H   0  0  0  0  0  0  0  0  0  0  0  0
   96.7904   45.9554  267.0820 H   0  0  0  0  0  0  0  0  0  0  0  0
   95.1105   51.6382  266.9028 H   0  0  0  0  0  0  0  0  0  0  0  0
   95.6181   53.8233  267.9468 H   0  0  0  0  0  0  0  0  0  0  0  0
   92.1419   50.7825  269.8902 H   0  0  0  0  0  0  0  0  0  0  0  0
   94.7150   55.6345  270.1926 H   0  0  0  0  0  0  0  0  0  0  0  0
   93.0789   55.1325  272.1942 H   0  0  0  0  0  0  0  0  0  0  0  0
   87.9964   47.7506  264.9870 H   0  0  0  0  0  0  0  0  0  0  0  0
   86.9040   45.6942  264.3312 H   0  0  0  0  0  0  0  0  0  0  0  0
   88.2666   45.3906  262.3257 H   0  0  0  0  0  0  0  0  0  0  0  0
   91.4260   47.5263  264.0219 H   0  0  0  0  0  0  0  0  0  0  0  0
   87.0502   47.8460  268.1024 H   0  0  0  0  0  0  0  0  0  0  0  0
   85.4970   46.9554  268.2252 H   0  0  0  0  0  0  0  0  0  0  0  0
   91.6189   53.3276  273.0105 H   0  0  0  0  0  0  0  0  0  0  0  0
   90.8542   52.3912  271.6820 H   0  0  0  0  0  0  0  0  0  0  0  0
   92.2435   51.6980  272.5854 H   0  0  0  0  0  0  0  0  0  0  0  0
   86.1349   44.0002  268.5368 H   0  0  0  0  0  0  0  0  0  0  0  0
   86.7116   45.3721  269.5428 H   0  0  0  0  0  0  0  0  0  0  0  0
   84.8572   44.0292  270.6078 H   0  0  0  0  0  0  0  0  0  0  0  0
   84.4656   45.7697  270.3980 H   0  0  0  0  0  0  0  0  0  0  0  0
   82.2270   45.0697  267.6014 H   0  0  0  0  0  0  0  0  0  0  0  0
   82.9081   46.3864  268.6158 H   0  0  0  0  0  0  0  0  0  0  0  0
   83.9900   46.4457  266.4389 H   0  0  0  0  0  0  0  0  0  0  0  0
   84.3755   44.6937  266.5320 H   0  0  0  0  0  0  0  0  0  0  0  0
  1  2  2  0  0  0  0
  1  5  1  0  0  0  0
  2  3  1  0  0  0  0
  2 12  1  0  0  0  0
  3  4  2  0  0  0  0
  4  6  1  0  0  0  0
  4 11  1  0  0  0  0
  5  6  2  0  0  0  0
  5 10  1  0  0  0  0
  6  7  1  0  0  0  0
  7  8  2  0  0  0  0
  8  9  1  0  0  0  0
  9 10  2  0  0  0  0
 11 13  2  0  0  0  0
 11 15  1  0  0  0  0
 12 21  2  0  0  0  0
 13 14  1  0  0  0  0
 14 17  2  0  0  0  0
 15 16  2  0  0  0  0
 16 17  1  0  0  0  0
 16 20  1  0  0  0  0
 17 18  1  0  0  0  0
 18 19  2  0  0  0  0
 19 20  1  0  0  0  0
 20 31  1  0  0  0  0
 21 22  1  0  0  0  0
 21 26  1  0  0  0  0
 22 23  1  0  0  0  0
 22 27  1  0  0  0  0
 23 24  2  0  0  0  0
 24 25  1  0  0  0  0
 25 26  2  0  0  0  0
 27 28  1  0  0  0  0
 27 29  2  0  0  0  0
 29 30  1  0  0  0  0
 30 32  1  0  0  0  0
 30 36  1  0  0  0  0
 32 33  1  0  0  0  0
 33 34  1  0  0  0  0
 34 35  1  0  0  0  0
 35 36  1  0  0  0  0
  1 37  1  0  0  0  0
  3 38  1  0  0  0  0
  8 39  1  0  0  0  0
  9 40  1  0  0  0  0
 13 41  1  0  0  0  0
 14 42  1  0  0  0  0
 15 43  1  0  0  0  0
 18 44  1  0  0  0  0
 19 45  1  0  0  0  0
 22 46  1  0  0  0  0
 23 47  1  0  0  0  0
 24 48  1  0  0  0  0
 26 49  1  0  0  0  0
 28 50  1  0  0  0  0
 30 51  1  0  0  0  0
 31 52  1  0  0  0  0
 31 53  1  0  0  0  0
 31 54  1  0  0  0  0
 32 55  1  0  0  0  0
 32 56  1  0  0  0  0
 33 57  1  0  0  0  0
 33 58  1  0  0  0  0
 35 59  1  0  0  0  0
 35 60  1  0  0  0  0
 36 61  1  0  0  0  0
 36 62  1  0  0  0  0
M  END
> <ID>
37

> <IC50[uM]>
0.047

$$$$
37
  -OEChem-05192314313D
 Structure written by MMmdl.
 62 67  0     0  0  0  0  0  0999 V2000
   92.5682   47.3462  266.4833 C   0  0  0  0  0  0  0  0  0  0  0  0
   91.6181   48.3452  266.6664 C   0  0  0  0  0  0  0  0  0  0  0  0
   91.9789   49.5400  267.2763 C   0  0  0  0  0  0  0  0  0  0  0  0
   93.2937   49.7963  267.6790 C   0  0  0  0  0  0  0  0  0  0  0  0
   93.8967   47.5399  266.9140 C   0  0  0  0  0  0  0  0  0  0  0  0
   94.2761   48.7809  267.5103 C   0  0  0  0  0  0  0  0  0  0  0  0
   95.5636   48.9666  267.9328 N   0  0  0  0  0  0  0  0  0  0  0  0
   96.4501   47.9585  267.7397 C   0  0  0  0  0  0  0  0  0  0  0  0
   96.0608   46.7452  267.1831 C   0  0  0  0  0  0  0  0  0  0  0  0
   94.7948   46.5277  266.7655 N   0  0  0  0  0  0  0  0  0  0  0  0
   93.5976   51.0957  268.3217 C   0  0  0  0  0  0  0  0  0  0  0  0
   90.2871   48.1511  266.2958 N   0  0  0  0  0  0  0  0  0  0  0  0
   94.5711   51.9448  267.7868 C   0  0  0  0  0  0  0  0  0  0  0  0
   94.8615   53.1780  268.3681 C   0  0  0  0  0  0  0  0  0  0  0  0
   92.8931   51.4384  269.4756 C   0  0  0  0  0  0  0  0  0  0  0  0
   93.1961   52.6578  270.0710 C   0  0  0  0  0  0  0  0  0  0  0  0
   94.1500   53.5596  269.5095 C   0  0  0  0  0  0  0  0  0  0  0  0
   94.1496   54.7271  270.3451 C   0  0  0  0  0  0  0  0  0  0  0  0
   93.2853   54.4571  271.3772 C   0  0  0  0  0  0  0  0  0  0  0  0
   92.7216   53.2230  271.2344 N   0  0  0  0  0  0  0  0  0  0  0  0
   89.7168   47.3542  265.2854 C   0  0  0  0  0  0  0  0  0  0  0  0
   88.4155   46.8174  265.3915 C   0  0  0  0  0  0  0  0  0  0  0  0
   87.9008   46.1080  264.2919 C   0  0  0  0  0  0  0  0  0  0  0  0
   88.6799   45.9426  263.1569 C   0  0  0  0  0  0  0  0  0  0  0  0
   89.9312   46.4387  263.0407 N   0  0  0  0  0  0  0  0  0  0  0  0
   90.4252   47.1278  264.0989 C   0  0  0  0  0  0  0  0  0  0  0  0
   87.5601   46.9683  266.6297 C   0  0  0  0  0  0  0  0  0  0  0  0
   87.6700   47.9323  267.3876 O   0  0  0  0  0  0  0  0  0  0  0  0
   86.6670   45.9862  266.8167 N   0  0  0  0  0  0  0  0  0  0  0  0
   85.5963   45.9500  267.7902 C   0  0  0  0  0  0  0  0  0  0  0  0
   91.8041   52.6238  272.1856 C   0  0  0  0  0  0  0  0  0  0  0  0
   85.8697   44.9843  268.9505 C   0  0  0  0  0  0  0  0  0  0  0  0
   84.6496   44.8209  269.8728 C   0  0  0  0  0  0  0  0  0  0  0  0
   83.4889   44.4695  269.1237 O   0  0  0  0  0  0  0  0  0  0  0  0
   83.1249   45.4242  268.1288 C   0  0  0  0  0  0  0  0  0  0  0  0
   84.2584   45.6197  267.1140 C   0  0  0  0  0  0  0  0  0  0  0  0
   92.2870   46.4176  266.0089 H   0  0  0  0  0  0  0  0  0  0  0  0
   91.2226   50.2925  267.4444 H   0  0  0  0  0  0  0  0  0  0  0  0
   97.4820   48.1014  268.0247 H   0  0  0  0  0  0  0  0  0  0  0  0
   96.7904   45.9554  267.0820 H   0  0  0  0  0  0  0  0  0  0  0  0
   95.1105   51.6382  266.9028 H   0  0  0  0  0  0  0  0  0  0  0  0
   95.6181   53.8233  267.9468 H   0  0  0  0  0  0  0  0  0  0  0  0
   92.1419   50.7825  269.8902 H   0  0  0  0  0  0  0  0  0  0  0  0
   94.7150   55.6345  270.1926 H   0  0  0  0  0  0  0  0  0  0  0  0
   93.0789   55.1325  272.1942 H   0  0  0  0  0  0  0  0  0  0  0  0
   86.9040   45.6942  264.3312 H   0  0  0  0  0  0  0  0  0  0  0  0
   88.7703   44.8565  263.0080 H   0  0  0  0  0  0  0  0  0  0  0  0
   88.1034   46.3796  262.3282 H   0  0  0  0  0  0  0  0  0  0  0  0
   91.4260   47.5263  264.0219 H   0  0  0  0  0  0  0  0  0  0  0  0
   87.0502   47.8460  268.1024 H   0  0  0  0  0  0  0  0  0  0  0  0
   85.4970   46.9554  268.2252 H   0  0  0  0  0  0  0  0  0  0  0  0
   91.6189   53.3276  273.0105 H   0  0  0  0  0  0  0  0  0  0  0  0
   90.8542   52.3912  271.6820 H   0  0  0  0  0  0  0  0  0  0  0  0
   92.2435   51.6980  272.5854 H   0  0  0  0  0  0  0  0  0  0  0  0
   86.1349   44.0002  268.5368 H   0  0  0  0  0  0  0  0  0  0  0  0
   86.7116   45.3721  269.5428 H   0  0  0  0  0  0  0  0  0  0  0  0
   84.8572   44.0292  270.6078 H   0  0  0  0  0  0  0  0  0  0  0  0
   84.4656   45.7697  270.3980 H   0  0  0  0  0  0  0  0  0  0  0  0
   82.2270   45.0697  267.6014 H   0  0  0  0  0  0  0  0  0  0  0  0
   82.9081   46.3864  268.6158 H   0  0  0  0  0  0  0  0  0  0  0  0
   83.9900   46.4457  266.4389 H   0  0  0  0  0  0  0  0  0  0  0  0
   84.3755   44.6937  266.5320 H   0  0  0  0  0  0  0  0  0  0  0  0
  1  2  2  0  0  0  0
  1  5  1  0  0  0  0
  2  3  1  0  0  0  0
  2 12  1  0  0  0  0
  3  4  2  0  0  0  0
  4  6  1  0  0  0  0
  4 11  1  0  0  0  0
  5  6  2  0  0  0  0
  5 10  1  0  0  0  0
  6  7  1  0  0  0  0
  7  8  2  0  0  0  0
  8  9  1  0  0  0  0
  9 10  2  0  0  0  0
 11 13  2  0  0  0  0
 11 15  1  0  0  0  0
 12 21  2  0  0  0  0
 13 14  1  0  0  0  0
 14 17  2  0  0  0  0
 15 16  2  0  0  0  0
 16 17  1  0  0  0  0
 16 20  1  0  0  0  0
 17 18  1  0  0  0  0
 18 19  2  0  0  0  0
 19 20  1  0  0  0  0
 20 31  1  0  0  0  0
 21 22  1  0  0  0  0
 21 26  1  0  0  0  0
 22 23  2  0  0  0  0
 22 27  1  0  0  0  0
 23 24  1  0  0  0  0
 24 25  1  0  0  0  0
 25 26  2  0  0  0  0
 27 28  1  0  0  0  0
 27 29  2  0  0  0  0
 29 30  1  0  0  0  0
 30 32  1  0  0  0  0
 30 36  1  0  0  0  0
 32 33  1  0  0  0  0
 33 34  1  0  0  0  0
 34 35  1  0  0  0  0
 35 36  1  0  0  0  0
  1 37  1  0  0  0  0
  3 38  1  0  0  0  0
  8 39  1  0  0  0  0
  9 40  1  0  0  0  0
 13 41  1  0  0  0  0
 14 42  1  0  0  0  0
 15 43  1  0  0  0  0
 18 44  1  0  0  0  0
 19 45  1  0  0  0  0
 23 46  1  0  0  0  0
 24 47  1  0  0  0  0
 24 48  1  0  0  0  0
 26 49  1  0  0  0  0
 28 50  1  0  0  0  0
 30 51  1  0  0  0  0
 31 52  1  0  0  0  0
 31 53  1  0  0  0  0
 31 54  1  0  0  0  0
 32 55  1  0  0  0  0
 32 56  1  0  0  0  0
 33 57  1  0  0  0  0
 33 58  1  0  0  0  0
 35 59  1  0  0  0  0
 35 60  1  0  0  0  0
 36 61  1  0  0  0  0
 36 62  1  0  0  0  0
M  END
> <ID>
37

> <IC50[uM]>
0.047

$$$$
37
  -OEChem-05192314313D
 Structure written by MMmdl.
 62 67  0     0  0  0  0  0  0999 V2000
   92.5682   47.3462  266.4833 C   0  0  0  0  0  0  0  0  0  0  0  0
   91.6181   48.3452  266.6664 C   0  0  0  0  0  0  0  0  0  0  0  0
   91.9789   49.5400  267.2763 C   0  0  0  0  0  0  0  0  0  0  0  0
   93.2937   49.7963  267.6790 C   0  0  0  0  0  0  0  0  0  0  0  0
   93.8967   47.5399  266.9140 C   0  0  0  0  0  0  0  0  0  0  0  0
   94.2761   48.7809  267.5103 C   0  0  0  0  0  0  0  0  0  0  0  0
   95.5636   48.9666  267.9328 N   0  0  0  0  0  0  0  0  0  0  0  0
   96.4501   47.9585  267.7397 C   0  0  0  0  0  0  0  0  0  0  0  0
   96.0608   46.7452  267.1831 C   0  0  0  0  0  0  0  0  0  0  0  0
   94.7948   46.5277  266.7655 N   0  0  0  0  0  0  0  0  0  0  0  0
   93.5976   51.0957  268.3217 C   0  0  0  0  0  0  0  0  0  0  0  0
   90.2871   48.1511  266.2958 N   0  0  0  0  0  0  0  0  0  0  0  0
   94.5711   51.9448  267.7868 C   0  0  0  0  0  0  0  0  0  0  0  0
   94.8615   53.1780  268.3681 C   0  0  0  0  0  0  0  0  0  0  0  0
   92.8931   51.4384  269.4756 C   0  0  0  0  0  0  0  0  0  0  0  0
   93.1961   52.6578  270.0710 C   0  0  0  0  0  0  0  0  0  0  0  0
   94.1500   53.5596  269.5095 C   0  0  0  0  0  0  0  0  0  0  0  0
   94.1496   54.7271  270.3451 C   0  0  0  0  0  0  0  0  0  0  0  0
   93.2853   54.4571  271.3772 C   0  0  0  0  0  0  0  0  0  0  0  0
   92.7216   53.2230  271.2344 N   0  0  0  0  0  0  0  0  0  0  0  0
   89.7168   47.3542  265.2854 C   0  0  0  0  0  0  0  0  0  0  0  0
   88.4155   46.8174  265.3915 C   0  0  0  0  0  0  0  0  0  0  0  0
   87.9008   46.1080  264.2919 C   0  0  0  0  0  0  0  0  0  0  0  0
   88.6799   45.9426  263.1569 C   0  0  0  0  0  0  0  0  0  0  0  0
   89.9312   46.4387  263.0407 N   0  0  0  0  0  0  0  0  0  0  0  0
   90.4252   47.1278  264.0989 C   0  0  0  0  0  0  0  0  0  0  0  0
   87.5601   46.9683  266.6297 C   0  0  0  0  0  0  0  0  0  0  0  0
   87.6700   47.9323  267.3876 O   0  0  0  0  0  0  0  0  0  0  0  0
   86.6670   45.9862  266.8167 N   0  0  0  0  0  0  0  0  0  0  0  0
   85.5963   45.9500  267.7902 C   0  0  0  0  0  0  0  0  0  0  0  0
   91.8041   52.6238  272.1856 C   0  0  0  0  0  0  0  0  0  0  0  0
   85.8697   44.9843  268.9505 C   0  0  0  0  0  0  0  0  0  0  0  0
   84.6496   44.8209  269.8728 C   0  0  0  0  0  0  0  0  0  0  0  0
   83.4889   44.4695  269.1237 O   0  0  0  0  0  0  0  0  0  0  0  0
   83.1249   45.4242  268.1288 C   0  0  0  0  0  0  0  0  0  0  0  0
   84.2584   45.6197  267.1140 C   0  0  0  0  0  0  0  0  0  0  0  0
   92.2870   46.4176  266.0089 H   0  0  0  0  0  0  0  0  0  0  0  0
   91.2226   50.2925  267.4444 H   0  0  0  0  0  0  0  0  0  0  0  0
   97.4820   48.1014  268.0247 H   0  0  0  0  0  0  0  0  0  0  0  0
   96.7904   45.9554  267.0820 H   0  0  0  0  0  0  0  0  0  0  0  0
   95.1105   51.6382  266.9028 H   0  0  0  0  0  0  0  0  0  0  0  0
   95.6181   53.8233  267.9468 H   0  0  0  0  0  0  0  0  0  0  0  0
   92.1419   50.7825  269.8902 H   0  0  0  0  0  0  0  0  0  0  0  0
   94.7150   55.6345  270.1926 H   0  0  0  0  0  0  0  0  0  0  0  0
   93.0789   55.1325  272.1942 H   0  0  0  0  0  0  0  0  0  0  0  0
   86.9040   45.6942  264.3312 H   0  0  0  0  0  0  0  0  0  0  0  0
   88.2666   45.3906  262.3257 H   0  0  0  0  0  0  0  0  0  0  0  0
   90.6840   48.1242  263.7113 H   0  0  0  0  0  0  0  0  0  0  0  0
   91.3435   46.6001  264.3960 H   0  0  0  0  0  0  0  0  0  0  0  0
   87.0502   47.8460  268.1024 H   0  0  0  0  0  0  0  0  0  0  0  0
   85.4970   46.9554  268.2252 H   0  0  0  0  0  0  0  0  0  0  0  0
   91.6189   53.3276  273.0105 H   0  0  0  0  0  0  0  0  0  0  0  0
   90.8542   52.3912  271.6820 H   0  0  0  0  0  0  0  0  0  0  0  0
   92.2435   51.6980  272.5854 H   0  0  0  0  0  0  0  0  0  0  0  0
   86.1349   44.0002  268.5368 H   0  0  0  0  0  0  0  0  0  0  0  0
   86.7116   45.3721  269.5428 H   0  0  0  0  0  0  0  0  0  0  0  0
   84.8572   44.0292  270.6078 H   0  0  0  0  0  0  0  0  0  0  0  0
   84.4656   45.7697  270.3980 H   0  0  0  0  0  0  0  0  0  0  0  0
   82.2270   45.0697  267.6014 H   0  0  0  0  0  0  0  0  0  0  0  0
   82.9081   46.3864  268.6158 H   0  0  0  0  0  0  0  0  0  0  0  0
   83.9900   46.4457  266.4389 H   0  0  0  0  0  0  0  0  0  0  0  0
   84.3755   44.6937  266.5320 H   0  0  0  0  0  0  0  0  0  0  0  0
  1  2  2  0  0  0  0
  1  5  1  0  0  0  0
  2  3  1  0  0  0  0
  2 12  1  0  0  0  0
  3  4  2  0  0  0  0
  4  6  1  0  0  0  0
  4 11  1  0  0  0  0
  5  6  2  0  0  0  0
  5 10  1  0  0  0  0
  6  7  1  0  0  0  0
  7  8  2  0  0  0  0
  8  9  1  0  0  0  0
  9 10  2  0  0  0  0
 11 13  2  0  0  0  0
 11 15  1  0  0  0  0
 12 21  2  0  0  0  0
 13 14  1  0  0  0  0
 14 17  2  0  0  0  0
 15 16  2  0  0  0  0
 16 17  1  0  0  0  0
 16 20  1  0  0  0  0
 17 18  1  0  0  0  0
 18 19  2  0  0  0  0
 19 20  1  0  0  0  0
 20 31  1  0  0  0  0
 21 22  1  0  0  0  0
 21 26  1  0  0  0  0
 22 23  2  0  0  0  0
 22 27  1  0  0  0  0
 23 24  1  0  0  0  0
 24 25  2  0  0  0  0
 25 26  1  0  0  0  0
 27 28  1  0  0  0  0
 27 29  2  0  0  0  0
 29 30  1  0  0  0  0
 30 32  1  0  0  0  0
 30 36  1  0  0  0  0
 32 33  1  0  0  0  0
 33 34  1  0  0  0  0
 34 35  1  0  0  0  0
 35 36  1  0  0  0  0
  1 37  1  0  0  0  0
  3 38  1  0  0  0  0
  8 39  1  0  0  0  0
  9 40  1  0  0  0  0
 13 41  1  0  0  0  0
 14 42  1  0  0  0  0
 15 43  1  0  0  0  0
 18 44  1  0  0  0  0
 19 45  1  0  0  0  0
 23 46  1  0  0  0  0
 24 47  1  0  0  0  0
 26 48  1  0  0  0  0
 26 49  1  0  0  0  0
 28 50  1  0  0  0  0
 30 51  1  0  0  0  0
 31 52  1  0  0  0  0
 31 53  1  0  0  0  0
 31 54  1  0  0  0  0
 32 55  1  0  0  0  0
 32 56  1  0  0  0  0
 33 57  1  0  0  0  0
 33 58  1  0  0  0  0
 35 59  1  0  0  0  0
 35 60  1  0  0  0  0
 36 61  1  0  0  0  0
 36 62  1  0  0  0  0
M  END
> <ID>
37

> <IC50[uM]>
0.047

$$$$
37
  -OEChem-05192314313D
 Structure written by MMmdl.
 62 67  0     1  0  0  0  0  0999 V2000
   92.5682   47.3462  266.4833 C   0  0  0  0  0  0  0  0  0  0  0  0
   91.6181   48.3452  266.6664 C   0  0  0  0  0  0  0  0  0  0  0  0
   91.9789   49.5400  267.2763 C   0  0  0  0  0  0  0  0  0  0  0  0
   93.2937   49.7963  267.6790 C   0  0  0  0  0  0  0  0  0  0  0  0
   93.8967   47.5399  266.9140 C   0  0  0  0  0  0  0  0  0  0  0  0
   94.2761   48.7809  267.5103 C   0  0  3  0  0  0  0  0  0  0  0  0
   95.5636   48.9666  267.9328 N   0  0  0  0  0  0  0  0  0  0  0  0
   96.4501   47.9585  267.7397 C   0  0  0  0  0  0  0  0  0  0  0  0
   96.0608   46.7452  267.1831 C   0  0  0  0  0  0  0  0  0  0  0  0
   94.7948   46.5277  266.7655 N   0  0  0  0  0  0  0  0  0  0  0  0
   93.5976   51.0957  268.3217 C   0  0  0  0  0  0  0  0  0  0  0  0
   90.2871   48.1511  266.2958 N   0  0  0  0  0  0  0  0  0  0  0  0
   94.5711   51.9448  267.7868 C   0  0  0  0  0  0  0  0  0  0  0  0
   94.8615   53.1780  268.3681 C   0  0  0  0  0  0  0  0  0  0  0  0
   92.8931   51.4384  269.4756 C   0  0  0  0  0  0  0  0  0  0  0  0
   93.1961   52.6578  270.0710 C   0  0  0  0  0  0  0  0  0  0  0  0
   94.1500   53.5596  269.5095 C   0  0  0  0  0  0  0  0  0  0  0  0
   94.1496   54.7271  270.3451 C   0  0  0  0  0  0  0  0  0  0  0  0
   93.2853   54.4571  271.3772 C   0  0  0  0  0  0  0  0  0  0  0  0
   92.7216   53.2230  271.2344 N   0  0  0  0  0  0  0  0  0  0  0  0
   89.7168   47.3542  265.2854 C   0  0  0  0  0  0  0  0  0  0  0  0
   88.4155   46.8174  265.3915 C   0  0  0  0  0  0  0  0  0  0  0  0
   87.9008   46.1080  264.2919 C   0  0  0  0  0  0  0  0  0  0  0  0
   88.6799   45.9426  263.1569 C   0  0  0  0  0  0  0  0  0  0  0  0
   89.9312   46.4387  263.0407 N   0  0  0  0  0  0  0  0  0  0  0  0
   90.4252   47.1278  264.0989 C   0  0  0  0  0  0  0  0  0  0  0  0
   87.5601   46.9683  266.6297 C   0  0  0  0  0  0  0  0  0  0  0  0
   87.6700   47.9323  267.3876 O   0  0  0  0  0  0  0  0  0  0  0  0
   86.6670   45.9862  266.8167 N   0  0  0  0  0  0  0  0  0  0  0  0
   85.5963   45.9500  267.7902 C   0  0  0  0  0  0  0  0  0  0  0  0
   91.8041   52.6238  272.1856 C   0  0  0  0  0  0  0  0  0  0  0  0
   85.8697   44.9843  268.9505 C   0  0  0  0  0  0  0  0  0  0  0  0
   84.6496   44.8209  269.8728 C   0  0  0  0  0  0  0  0  0  0  0  0
   83.4889   44.4695  269.1237 O   0  0  0  0  0  0  0  0  0  0  0  0
   83.1249   45.4242  268.1288 C   0  0  0  0  0  0  0  0  0  0  0  0
   84.2584   45.6197  267.1140 C   0  0  0  0  0  0  0  0  0  0  0  0
   92.2870   46.4176  266.0089 H   0  0  0  0  0  0  0  0  0  0  0  0
   91.2226   50.2925  267.4444 H   0  0  0  0  0  0  0  0  0  0  0  0
   94.5347   49.1855  266.5207 H   0  0  0  0  0  0  0  0  0  0  0  0
   97.4820   48.1014  268.0247 H   0  0  0  0  0  0  0  0  0  0  0  0
   96.7904   45.9554  267.0820 H   0  0  0  0  0  0  0  0  0  0  0  0
   95.1105   51.6382  266.9028 H   0  0  0  0  0  0  0  0  0  0  0  0
   95.6181   53.8233  267.9468 H   0  0  0  0  0  0  0  0  0  0  0  0
   92.1419   50.7825  269.8902 H   0  0  0  0  0  0  0  0  0  0  0  0
   94.7150   55.6345  270.1926 H   0  0  0  0  0  0  0  0  0  0  0  0
   93.0789   55.1325  272.1942 H   0  0  0  0  0  0  0  0  0  0  0  0
   86.9040   45.6942  264.3312 H   0  0  0  0  0  0  0  0  0  0  0  0
   88.2666   45.3906  262.3257 H   0  0  0  0  0  0  0  0  0  0  0  0
   91.4260   47.5263  264.0219 H   0  0  0  0  0  0  0  0  0  0  0  0
   86.7496   45.1902  266.2171 H   0  0  0  0  0  0  0  0  0  0  0  0
   85.4970   46.9554  268.2252 H   0  0  0  0  0  0  0  0  0  0  0  0
   91.6189   53.3276  273.0105 H   0  0  0  0  0  0  0  0  0  0  0  0
   90.8542   52.3912  271.6820 H   0  0  0  0  0  0  0  0  0  0  0  0
   92.2435   51.6980  272.5854 H   0  0  0  0  0  0  0  0  0  0  0  0
   86.1349   44.0002  268.5368 H   0  0  0  0  0  0  0  0  0  0  0  0
   86.7116   45.3721  269.5428 H   0  0  0  0  0  0  0  0  0  0  0  0
   84.8572   44.0292  270.6078 H   0  0  0  0  0  0  0  0  0  0  0  0
   84.4656   45.7697  270.3980 H   0  0  0  0  0  0  0  0  0  0  0  0
   82.2270   45.0697  267.6014 H   0  0  0  0  0  0  0  0  0  0  0  0
   82.9081   46.3864  268.6158 H   0  0  0  0  0  0  0  0  0  0  0  0
   83.9900   46.4457  266.4389 H   0  0  0  0  0  0  0  0  0  0  0  0
   84.3755   44.6937  266.5320 H   0  0  0  0  0  0  0  0  0  0  0  0
  1  2  1  0  0  0  0
  1  5  2  0  0  0  0
  2  3  1  0  0  0  0
  2 12  2  0  0  0  0
  3  4  2  0  0  0  0
  4  6  1  0  0  0  0
  4 11  1  0  0  0  0
  5  6  1  0  0  0  0
  5 10  1  0  0  0  0
  6  7  1  0  0  0  0
  7  8  2  0  0  0  0
  8  9  1  0  0  0  0
  9 10  2  0  0  0  0
 11 13  2  0  0  0  0
 11 15  1  0  0  0  0
 12 21  1  0  0  0  0
 13 14  1  0  0  0  0
 14 17  2  0  0  0  0
 15 16  2  0  0  0  0
 16 17  1  0  0  0  0
 16 20  1  0  0  0  0
 17 18  1  0  0  0  0
 18 19  2  0  0  0  0
 19 20  1  0  0  0  0
 20 31  1  0  0  0  0
 21 22  2  0  0  0  0
 21 26  1  0  0  0  0
 22 23  1  0  0  0  0
 22 27  1  0  0  0  0
 23 24  2  0  0  0  0
 24 25  1  0  0  0  0
 25 26  2  0  0  0  0
 27 28  2  0  0  0  0
 27 29  1  0  0  0  0
 29 30  1  0  0  0  0
 30 32  1  0  0  0  0
 30 36  1  0  0  0  0
 32 33  1  0  0  0  0
 33 34  1  0  0  0  0
 34 35  1  0  0  0  0
 35 36  1  0  0  0  0
  1 37  1  0  0  0  0
  3 38  1  0  0  0  0
  6 39  1  0  0  0  0
  8 40  1  0  0  0  0
  9 41  1  0  0  0  0
 13 42  1  0  0  0  0
 14 43  1  0  0  0  0
 15 44  1  0  0  0  0
 18 45  1  0  0  0  0
 19 46  1  0  0  0  0
 23 47  1  0  0  0  0
 24 48  1  0  0  0  0
 26 49  1  0  0  0  0
 29 50  1  0  0  0  0
 30 51  1  0  0  0  0
 31 52  1  0  0  0  0
 31 53  1  0  0  0  0
 31 54  1  0  0  0  0
 32 55  1  0  0  0  0
 32 56  1  0  0  0  0
 33 57  1  0  0  0  0
 33 58  1  0  0  0  0
 35 59  1  0  0  0  0
 35 60  1  0  0  0  0
 36 61  1  0  0  0  0
 36 62  1  0  0  0  0
M  END
> <ID>
37

> <IC50[uM]>
0.047

$$$$
37
  -OEChem-05192314313D
 Structure written by MMmdl.
 62 67  0     0  0  0  0  0  0999 V2000
   92.5682   47.3462  266.4833 C   0  0  0  0  0  0  0  0  0  0  0  0
   91.6181   48.3452  266.6664 C   0  0  0  0  0  0  0  0  0  0  0  0
   91.9789   49.5400  267.2763 C   0  0  0  0  0  0  0  0  0  0  0  0
   93.2937   49.7963  267.6790 C   0  0  0  0  0  0  0  0  0  0  0  0
   93.8967   47.5399  266.9140 C   0  0  0  0  0  0  0  0  0  0  0  0
   94.2761   48.7809  267.5103 C   0  0  0  0  0  0  0  0  0  0  0  0
   95.5636   48.9666  267.9328 N   0  0  0  0  0  0  0  0  0  0  0  0
   96.4501   47.9585  267.7397 C   0  0  0  0  0  0  0  0  0  0  0  0
   96.0608   46.7452  267.1831 C   0  0  0  0  0  0  0  0  0  0  0  0
   94.7948   46.5277  266.7655 N   0  0  0  0  0  0  0  0  0  0  0  0
   93.5976   51.0957  268.3217 C   0  0  0  0  0  0  0  0  0  0  0  0
   90.2871   48.1511  266.2958 N   0  0  0  0  0  0  0  0  0  0  0  0
   94.5711   51.9448  267.7868 C   0  0  0  0  0  0  0  0  0  0  0  0
   94.8615   53.1780  268.3681 C   0  0  0  0  0  0  0  0  0  0  0  0
   92.8931   51.4384  269.4756 C   0  0  0  0  0  0  0  0  0  0  0  0
   93.1961   52.6578  270.0710 C   0  0  0  0  0  0  0  0  0  0  0  0
   94.1500   53.5596  269.5095 C   0  0  0  0  0  0  0  0  0  0  0  0
   94.1496   54.7271  270.3451 C   0  0  0  0  0  0  0  0  0  0  0  0
   93.2853   54.4571  271.3772 C   0  0  0  0  0  0  0  0  0  0  0  0
   92.7216   53.2230  271.2344 N   0  0  0  0  0  0  0  0  0  0  0  0
   89.7168   47.3542  265.2854 C   0  0  0  0  0  0  0  0  0  0  0  0
   88.4155   46.8174  265.3915 C   0  0  0  0  0  0  0  0  0  0  0  0
   87.9008   46.1080  264.2919 C   0  0  0  0  0  0  0  0  0  0  0  0
   88.6799   45.9426  263.1569 C   0  0  0  0  0  0  0  0  0  0  0  0
   89.9312   46.4387  263.0407 N   0  0  0  0  0  0  0  0  0  0  0  0
   90.4252   47.1278  264.0989 C   0  0  0  0  0  0  0  0  0  0  0  0
   87.5601   46.9683  266.6297 C   0  0  0  0  0  0  0  0  0  0  0  0
   87.6700   47.9323  267.3876 O   0  0  0  0  0  0  0  0  0  0  0  0
   86.6670   45.9862  266.8167 N   0  0  0  0  0  0  0  0  0  0  0  0
   85.5963   45.9500  267.7902 C   0  0  0  0  0  0  0  0  0  0  0  0
   91.8041   52.6238  272.1856 C   0  0  0  0  0  0  0  0  0  0  0  0
   85.8697   44.9843  268.9505 C   0  0  0  0  0  0  0  0  0  0  0  0
   84.6496   44.8209  269.8728 C   0  0  0  0  0  0  0  0  0  0  0  0
   83.4889   44.4695  269.1237 O   0  0  0  0  0  0  0  0  0  0  0  0
   83.1249   45.4242  268.1288 C   0  0  0  0  0  0  0  0  0  0  0  0
   84.2584   45.6197  267.1140 C   0  0  0  0  0  0  0  0  0  0  0  0
   92.2870   46.4176  266.0089 H   0  0  0  0  0  0  0  0  0  0  0  0
   91.2226   50.2925  267.4444 H   0  0  0  0  0  0  0  0  0  0  0  0
   97.2394   48.3601  267.0872 H   0  0  0  0  0  0  0  0  0  0  0  0
   96.8743   47.7249  268.7273 H   0  0  0  0  0  0  0  0  0  0  0  0
   96.7904   45.9554  267.0820 H   0  0  0  0  0  0  0  0  0  0  0  0
   95.1105   51.6382  266.9028 H   0  0  0  0  0  0  0  0  0  0  0  0
   95.6181   53.8233  267.9468 H   0  0  0  0  0  0  0  0  0  0  0  0
   92.1419   50.7825  269.8902 H   0  0  0  0  0  0  0  0  0  0  0  0
   94.7150   55.6345  270.1926 H   0  0  0  0  0  0  0  0  0  0  0  0
   93.0789   55.1325  272.1942 H   0  0  0  0  0  0  0  0  0  0  0  0
   86.9040   45.6942  264.3312 H   0  0  0  0  0  0  0  0  0  0  0  0
   88.2666   45.3906  262.3257 H   0  0  0  0  0  0  0  0  0  0  0  0
   91.4260   47.5263  264.0219 H   0  0  0  0  0  0  0  0  0  0  0  0
   86.7496   45.1902  266.2171 H   0  0  0  0  0  0  0  0  0  0  0  0
   85.4970   46.9554  268.2252 H   0  0  0  0  0  0  0  0  0  0  0  0
   91.6189   53.3276  273.0105 H   0  0  0  0  0  0  0  0  0  0  0  0
   90.8542   52.3912  271.6820 H   0  0  0  0  0  0  0  0  0  0  0  0
   92.2435   51.6980  272.5854 H   0  0  0  0  0  0  0  0  0  0  0  0
   86.1349   44.0002  268.5368 H   0  0  0  0  0  0  0  0  0  0  0  0
   86.7116   45.3721  269.5428 H   0  0  0  0  0  0  0  0  0  0  0  0
   84.8572   44.0292  270.6078 H   0  0  0  0  0  0  0  0  0  0  0  0
   84.4656   45.7697  270.3980 H   0  0  0  0  0  0  0  0  0  0  0  0
   82.2270   45.0697  267.6014 H   0  0  0  0  0  0  0  0  0  0  0  0
   82.9081   46.3864  268.6158 H   0  0  0  0  0  0  0  0  0  0  0  0
   83.9900   46.4457  266.4389 H   0  0  0  0  0  0  0  0  0  0  0  0
   84.3755   44.6937  266.5320 H   0  0  0  0  0  0  0  0  0  0  0  0
  1  2  1  0  0  0  0
  1  5  2  0  0  0  0
  2  3  1  0  0  0  0
  2 12  2  0  0  0  0
  3  4  2  0  0  0  0
  4  6  1  0  0  0  0
  4 11  1  0  0  0  0
  5  6  1  0  0  0  0
  5 10  1  0  0  0  0
  6  7  2  0  0  0  0
  7  8  1  0  0  0  0
  8  9  1  0  0  0  0
  9 10  2  0  0  0  0
 11 13  2  0  0  0  0
 11 15  1  0  0  0  0
 12 21  1  0  0  0  0
 13 14  1  0  0  0  0
 14 17  2  0  0  0  0
 15 16  2  0  0  0  0
 16 17  1  0  0  0  0
 16 20  1  0  0  0  0
 17 18  1  0  0  0  0
 18 19  2  0  0  0  0
 19 20  1  0  0  0  0
 20 31  1  0  0  0  0
 21 22  2  0  0  0  0
 21 26  1  0  0  0  0
 22 23  1  0  0  0  0
 22 27  1  0  0  0  0
 23 24  2  0  0  0  0
 24 25  1  0  0  0  0
 25 26  2  0  0  0  0
 27 28  2  0  0  0  0
 27 29  1  0  0  0  0
 29 30  1  0  0  0  0
 30 32  1  0  0  0  0
 30 36  1  0  0  0  0
 32 33  1  0  0  0  0
 33 34  1  0  0  0  0
 34 35  1  0  0  0  0
 35 36  1  0  0  0  0
  1 37  1  0  0  0  0
  3 38  1  0  0  0  0
  8 39  1  0  0  0  0
  8 40  1  0  0  0  0
  9 41  1  0  0  0  0
 13 42  1  0  0  0  0
 14 43  1  0  0  0  0
 15 44  1  0  0  0  0
 18 45  1  0  0  0  0
 19 46  1  0  0  0  0
 23 47  1  0  0  0  0
 24 48  1  0  0  0  0
 26 49  1  0  0  0  0
 29 50  1  0  0  0  0
 30 51  1  0  0  0  0
 31 52  1  0  0  0  0
 31 53  1  0  0  0  0
 31 54  1  0  0  0  0
 32 55  1  0  0  0  0
 32 56  1  0  0  0  0
 33 57  1  0  0  0  0
 33 58  1  0  0  0  0
 35 59  1  0  0  0  0
 35 60  1  0  0  0  0
 36 61  1  0  0  0  0
 36 62  1  0  0  0  0
M  END
> <ID>
37

> <IC50[uM]>
0.047

$$$$
37
  -OEChem-05192314313D
 Structure written by MMmdl.
 62 67  0     1  0  0  0  0  0999 V2000
   92.5682   47.3462  266.4833 C   0  0  0  0  0  0  0  0  0  0  0  0
   91.6181   48.3452  266.6664 C   0  0  0  0  0  0  0  0  0  0  0  0
   91.9789   49.5400  267.2763 C   0  0  0  0  0  0  0  0  0  0  0  0
   93.2937   49.7963  267.6790 C   0  0  0  0  0  0  0  0  0  0  0  0
   93.8967   47.5399  266.9140 C   0  0  0  0  0  0  0  0  0  0  0  0
   94.2761   48.7809  267.5103 C   0  0  3  0  0  0  0  0  0  0  0  0
   95.5636   48.9666  267.9328 N   0  0  0  0  0  0  0  0  0  0  0  0
   96.4501   47.9585  267.7397 C   0  0  0  0  0  0  0  0  0  0  0  0
   96.0608   46.7452  267.1831 C   0  0  0  0  0  0  0  0  0  0  0  0
   94.7948   46.5277  266.7655 N   0  0  0  0  0  0  0  0  0  0  0  0
   93.5976   51.0957  268.3217 C   0  0  0  0  0  0  0  0  0  0  0  0
   90.2871   48.1511  266.2958 N   0  0  0  0  0  0  0  0  0  0  0  0
   94.5711   51.9448  267.7868 C   0  0  0  0  0  0  0  0  0  0  0  0
   94.8615   53.1780  268.3681 C   0  0  0  0  0  0  0  0  0  0  0  0
   92.8931   51.4384  269.4756 C   0  0  0  0  0  0  0  0  0  0  0  0
   93.1961   52.6578  270.0710 C   0  0  0  0  0  0  0  0  0  0  0  0
   94.1500   53.5596  269.5095 C   0  0  0  0  0  0  0  0  0  0  0  0
   94.1496   54.7271  270.3451 C   0  0  0  0  0  0  0  0  0  0  0  0
   93.2853   54.4571  271.3772 C   0  0  0  0  0  0  0  0  0  0  0  0
   92.7216   53.2230  271.2344 N   0  0  0  0  0  0  0  0  0  0  0  0
   89.7168   47.3542  265.2854 C   0  0  0  0  0  0  0  0  0  0  0  0
   88.4155   46.8174  265.3915 C   0  0  0  0  0  0  0  0  0  0  0  0
   87.9008   46.1080  264.2919 C   0  0  0  0  0  0  0  0  0  0  0  0
   88.6799   45.9426  263.1569 C   0  0  0  0  0  0  0  0  0  0  0  0
   89.9312   46.4387  263.0407 N   0  0  0  0  0  0  0  0  0  0  0  0
   90.4252   47.1278  264.0989 C   0  0  0  0  0  0  0  0  0  0  0  0
   87.5601   46.9683  266.6297 C   0  0  0  0  0  0  0  0  0  0  0  0
   87.6700   47.9323  267.3876 O   0  0  0  0  0  0  0  0  0  0  0  0
   86.6670   45.9862  266.8167 N   0  0  0  0  0  0  0  0  0  0  0  0
   85.5963   45.9500  267.7902 C   0  0  0  0  0  0  0  0  0  0  0  0
   91.8041   52.6238  272.1856 C   0  0  0  0  0  0  0  0  0  0  0  0
   85.8697   44.9843  268.9505 C   0  0  0  0  0  0  0  0  0  0  0  0
   84.6496   44.8209  269.8728 C   0  0  0  0  0  0  0  0  0  0  0  0
   83.4889   44.4695  269.1237 O   0  0  0  0  0  0  0  0  0  0  0  0
   83.1249   45.4242  268.1288 C   0  0  0  0  0  0  0  0  0  0  0  0
   84.2584   45.6197  267.1140 C   0  0  0  0  0  0  0  0  0  0  0  0
   92.2870   46.4176  266.0089 H   0  0  0  0  0  0  0  0  0  0  0  0
   91.2226   50.2925  267.4444 H   0  0  0  0  0  0  0  0  0  0  0  0
   94.5347   49.1855  266.5207 H   0  0  0  0  0  0  0  0  0  0  0  0
   97.4820   48.1014  268.0247 H   0  0  0  0  0  0  0  0  0  0  0  0
   96.7904   45.9554  267.0820 H   0  0  0  0  0  0  0  0  0  0  0  0
   95.1105   51.6382  266.9028 H   0  0  0  0  0  0  0  0  0  0  0  0
   95.6181   53.8233  267.9468 H   0  0  0  0  0  0  0  0  0  0  0  0
   92.1419   50.7825  269.8902 H   0  0  0  0  0  0  0  0  0  0  0  0
   94.7150   55.6345  270.1926 H   0  0  0  0  0  0  0  0  0  0  0  0
   93.0789   55.1325  272.1942 H   0  0  0  0  0  0  0  0  0  0  0  0
   86.9040   45.6942  264.3312 H   0  0  0  0  0  0  0  0  0  0  0  0
   88.2666   45.3906  262.3257 H   0  0  0  0  0  0  0  0  0  0  0  0
   91.4260   47.5263  264.0219 H   0  0  0  0  0  0  0  0  0  0  0  0
   87.0502   47.8460  268.1024 H   0  0  0  0  0  0  0  0  0  0  0  0
   85.4970   46.9554  268.2252 H   0  0  0  0  0  0  0  0  0  0  0  0
   91.6189   53.3276  273.0105 H   0  0  0  0  0  0  0  0  0  0  0  0
   90.8542   52.3912  271.6820 H   0  0  0  0  0  0  0  0  0  0  0  0
   92.2435   51.6980  272.5854 H   0  0  0  0  0  0  0  0  0  0  0  0
   86.1349   44.0002  268.5368 H   0  0  0  0  0  0  0  0  0  0  0  0
   86.7116   45.3721  269.5428 H   0  0  0  0  0  0  0  0  0  0  0  0
   84.8572   44.0292  270.6078 H   0  0  0  0  0  0  0  0  0  0  0  0
   84.4656   45.7697  270.3980 H   0  0  0  0  0  0  0  0  0  0  0  0
   82.2270   45.0697  267.6014 H   0  0  0  0  0  0  0  0  0  0  0  0
   82.9081   46.3864  268.6158 H   0  0  0  0  0  0  0  0  0  0  0  0
   83.9900   46.4457  266.4389 H   0  0  0  0  0  0  0  0  0  0  0  0
   84.3755   44.6937  266.5320 H   0  0  0  0  0  0  0  0  0  0  0  0
  1  2  1  0  0  0  0
  1  5  2  0  0  0  0
  2  3  1  0  0  0  0
  2 12  2  0  0  0  0
  3  4  2  0  0  0  0
  4  6  1  0  0  0  0
  4 11  1  0  0  0  0
  5  6  1  0  0  0  0
  5 10  1  0  0  0  0
  6  7  1  0  0  0  0
  7  8  2  0  0  0  0
  8  9  1  0  0  0  0
  9 10  2  0  0  0  0
 11 13  2  0  0  0  0
 11 15  1  0  0  0  0
 12 21  1  0  0  0  0
 13 14  1  0  0  0  0
 14 17  2  0  0  0  0
 15 16  2  0  0  0  0
 16 17  1  0  0  0  0
 16 20  1  0  0  0  0
 17 18  1  0  0  0  0
 18 19  2  0  0  0  0
 19 20  1  0  0  0  0
 20 31  1  0  0  0  0
 21 22  2  0  0  0  0
 21 26  1  0  0  0  0
 22 23  1  0  0  0  0
 22 27  1  0  0  0  0
 23 24  2  0  0  0  0
 24 25  1  0  0  0  0
 25 26  2  0  0  0  0
 27 28  1  0  0  0  0
 27 29  2  0  0  0  0
 29 30  1  0  0  0  0
 30 32  1  0  0  0  0
 30 36  1  0  0  0  0
 32 33  1  0  0  0  0
 33 34  1  0  0  0  0
 34 35  1  0  0  0  0
 35 36  1  0  0  0  0
  1 37  1  0  0  0  0
  3 38  1  0  0  0  0
  6 39  1  0  0  0  0
  8 40  1  0  0  0  0
  9 41  1  0  0  0  0
 13 42  1  0  0  0  0
 14 43  1  0  0  0  0
 15 44  1  0  0  0  0
 18 45  1  0  0  0  0
 19 46  1  0  0  0  0
 23 47  1  0  0  0  0
 24 48  1  0  0  0  0
 26 49  1  0  0  0  0
 28 50  1  0  0  0  0
 30 51  1  0  0  0  0
 31 52  1  0  0  0  0
 31 53  1  0  0  0  0
 31 54  1  0  0  0  0
 32 55  1  0  0  0  0
 32 56  1  0  0  0  0
 33 57  1  0  0  0  0
 33 58  1  0  0  0  0
 35 59  1  0  0  0  0
 35 60  1  0  0  0  0
 36 61  1  0  0  0  0
 36 62  1  0  0  0  0
M  END
> <ID>
37

> <IC50[uM]>
0.047

$$$$
37
  -OEChem-05192314313D
 Structure written by MMmdl.
 62 67  0     0  0  0  0  0  0999 V2000
   92.5682   47.3462  266.4833 C   0  0  0  0  0  0  0  0  0  0  0  0
   91.6181   48.3452  266.6664 C   0  0  0  0  0  0  0  0  0  0  0  0
   91.9789   49.5400  267.2763 C   0  0  0  0  0  0  0  0  0  0  0  0
   93.2937   49.7963  267.6790 C   0  0  0  0  0  0  0  0  0  0  0  0
   93.8967   47.5399  266.9140 C   0  0  0  0  0  0  0  0  0  0  0  0
   94.2761   48.7809  267.5103 C   0  0  0  0  0  0  0  0  0  0  0  0
   95.5636   48.9666  267.9328 N   0  0  0  0  0  0  0  0  0  0  0  0
   96.4501   47.9585  267.7397 C   0  0  0  0  0  0  0  0  0  0  0  0
   96.0608   46.7452  267.1831 C   0  0  0  0  0  0  0  0  0  0  0  0
   94.7948   46.5277  266.7655 N   0  0  0  0  0  0  0  0  0  0  0  0
   93.5976   51.0957  268.3217 C   0  0  0  0  0  0  0  0  0  0  0  0
   90.2871   48.1511  266.2958 N   0  0  0  0  0  0  0  0  0  0  0  0
   94.5711   51.9448  267.7868 C   0  0  0  0  0  0  0  0  0  0  0  0
   94.8615   53.1780  268.3681 C   0  0  0  0  0  0  0  0  0  0  0  0
   92.8931   51.4384  269.4756 C   0  0  0  0  0  0  0  0  0  0  0  0
   93.1961   52.6578  270.0710 C   0  0  0  0  0  0  0  0  0  0  0  0
   94.1500   53.5596  269.5095 C   0  0  0  0  0  0  0  0  0  0  0  0
   94.1496   54.7271  270.3451 C   0  0  0  0  0  0  0  0  0  0  0  0
   93.2853   54.4571  271.3772 C   0  0  0  0  0  0  0  0  0  0  0  0
   92.7216   53.2230  271.2344 N   0  0  0  0  0  0  0  0  0  0  0  0
   89.7168   47.3542  265.2854 C   0  0  0  0  0  0  0  0  0  0  0  0
   88.4155   46.8174  265.3915 C   0  0  0  0  0  0  0  0  0  0  0  0
   87.9008   46.1080  264.2919 C   0  0  0  0  0  0  0  0  0  0  0  0
   88.6799   45.9426  263.1569 C   0  0  0  0  0  0  0  0  0  0  0  0
   89.9312   46.4387  263.0407 N   0  0  0  0  0  0  0  0  0  0  0  0
   90.4252   47.1278  264.0989 C   0  0  0  0  0  0  0  0  0  0  0  0
   87.5601   46.9683  266.6297 C   0  0  0  0  0  0  0  0  0  0  0  0
   87.6700   47.9323  267.3876 O   0  0  0  0  0  0  0  0  0  0  0  0
   86.6670   45.9862  266.8167 N   0  0  0  0  0  0  0  0  0  0  0  0
   85.5963   45.9500  267.7902 C   0  0  0  0  0  0  0  0  0  0  0  0
   91.8041   52.6238  272.1856 C   0  0  0  0  0  0  0  0  0  0  0  0
   85.8697   44.9843  268.9505 C   0  0  0  0  0  0  0  0  0  0  0  0
   84.6496   44.8209  269.8728 C   0  0  0  0  0  0  0  0  0  0  0  0
   83.4889   44.4695  269.1237 O   0  0  0  0  0  0  0  0  0  0  0  0
   83.1249   45.4242  268.1288 C   0  0  0  0  0  0  0  0  0  0  0  0
   84.2584   45.6197  267.1140 C   0  0  0  0  0  0  0  0  0  0  0  0
   92.2870   46.4176  266.0089 H   0  0  0  0  0  0  0  0  0  0  0  0
   91.2226   50.2925  267.4444 H   0  0  0  0  0  0  0  0  0  0  0  0
   97.2394   48.3601  267.0872 H   0  0  0  0  0  0  0  0  0  0  0  0
   96.8743   47.7249  268.7273 H   0  0  0  0  0  0  0  0  0  0  0  0
   96.7904   45.9554  267.0820 H   0  0  0  0  0  0  0  0  0  0  0  0
   95.1105   51.6382  266.9028 H   0  0  0  0  0  0  0  0  0  0  0  0
   95.6181   53.8233  267.9468 H   0  0  0  0  0  0  0  0  0  0  0  0
   92.1419   50.7825  269.8902 H   0  0  0  0  0  0  0  0  0  0  0  0
   94.7150   55.6345  270.1926 H   0  0  0  0  0  0  0  0  0  0  0  0
   93.0789   55.1325  272.1942 H   0  0  0  0  0  0  0  0  0  0  0  0
   86.9040   45.6942  264.3312 H   0  0  0  0  0  0  0  0  0  0  0  0
   88.2666   45.3906  262.3257 H   0  0  0  0  0  0  0  0  0  0  0  0
   91.4260   47.5263  264.0219 H   0  0  0  0  0  0  0  0  0  0  0  0
   87.0502   47.8460  268.1024 H   0  0  0  0  0  0  0  0  0  0  0  0
   85.4970   46.9554  268.2252 H   0  0  0  0  0  0  0  0  0  0  0  0
   91.6189   53.3276  273.0105 H   0  0  0  0  0  0  0  0  0  0  0  0
   90.8542   52.3912  271.6820 H   0  0  0  0  0  0  0  0  0  0  0  0
   92.2435   51.6980  272.5854 H   0  0  0  0  0  0  0  0  0  0  0  0
   86.1349   44.0002  268.5368 H   0  0  0  0  0  0  0  0  0  0  0  0
   86.7116   45.3721  269.5428 H   0  0  0  0  0  0  0  0  0  0  0  0
   84.8572   44.0292  270.6078 H   0  0  0  0  0  0  0  0  0  0  0  0
   84.4656   45.7697  270.3980 H   0  0  0  0  0  0  0  0  0  0  0  0
   82.2270   45.0697  267.6014 H   0  0  0  0  0  0  0  0  0  0  0  0
   82.9081   46.3864  268.6158 H   0  0  0  0  0  0  0  0  0  0  0  0
   83.9900   46.4457  266.4389 H   0  0  0  0  0  0  0  0  0  0  0  0
   84.3755   44.6937  266.5320 H   0  0  0  0  0  0  0  0  0  0  0  0
  1  2  1  0  0  0  0
  1  5  2  0  0  0  0
  2  3  1  0  0  0  0
  2 12  2  0  0  0  0
  3  4  2  0  0  0  0
  4  6  1  0  0  0  0
  4 11  1  0  0  0  0
  5  6  1  0  0  0  0
  5 10  1  0  0  0  0
  6  7  2  0  0  0  0
  7  8  1  0  0  0  0
  8  9  1  0  0  0  0
  9 10  2  0  0  0  0
 11 13  2  0  0  0  0
 11 15  1  0  0  0  0
 12 21  1  0  0  0  0
 13 14  1  0  0  0  0
 14 17  2  0  0  0  0
 15 16  2  0  0  0  0
 16 17  1  0  0  0  0
 16 20  1  0  0  0  0
 17 18  1  0  0  0  0
 18 19  2  0  0  0  0
 19 20  1  0  0  0  0
 20 31  1  0  0  0  0
 21 22  2  0  0  0  0
 21 26  1  0  0  0  0
 22 23  1  0  0  0  0
 22 27  1  0  0  0  0
 23 24  2  0  0  0  0
 24 25  1  0  0  0  0
 25 26  2  0  0  0  0
 27 28  1  0  0  0  0
 27 29  2  0  0  0  0
 29 30  1  0  0  0  0
 30 32  1  0  0  0  0
 30 36  1  0  0  0  0
 32 33  1  0  0  0  0
 33 34  1  0  0  0  0
 34 35  1  0  0  0  0
 35 36  1  0  0  0  0
  1 37  1  0  0  0  0
  3 38  1  0  0  0  0
  8 39  1  0  0  0  0
  8 40  1  0  0  0  0
  9 41  1  0  0  0  0
 13 42  1  0  0  0  0
 14 43  1  0  0  0  0
 15 44  1  0  0  0  0
 18 45  1  0  0  0  0
 19 46  1  0  0  0  0
 23 47  1  0  0  0  0
 24 48  1  0  0  0  0
 26 49  1  0  0  0  0
 28 50  1  0  0  0  0
 30 51  1  0  0  0  0
 31 52  1  0  0  0  0
 31 53  1  0  0  0  0
 31 54  1  0  0  0  0
 32 55  1  0  0  0  0
 32 56  1  0  0  0  0
 33 57  1  0  0  0  0
 33 58  1  0  0  0  0
 35 59  1  0  0  0  0
 35 60  1  0  0  0  0
 36 61  1  0  0  0  0
 36 62  1  0  0  0  0
M  END
> <ID>
37

> <IC50[uM]>
0.047

$$$$
37
  -OEChem-05192314323D
 Structure written by MMmdl.
 62 67  0     0  0  0  0  0  0999 V2000
   92.5682   47.3462  266.4833 C   0  0  0  0  0  0  0  0  0  0  0  0
   91.6181   48.3452  266.6664 C   0  0  0  0  0  0  0  0  0  0  0  0
   91.9789   49.5400  267.2763 C   0  0  0  0  0  0  0  0  0  0  0  0
   93.2937   49.7963  267.6790 C   0  0  0  0  0  0  0  0  0  0  0  0
   93.8967   47.5399  266.9140 C   0  0  0  0  0  0  0  0  0  0  0  0
   94.2761   48.7809  267.5103 C   0  0  0  0  0  0  0  0  0  0  0  0
   95.5636   48.9666  267.9328 N   0  0  0  0  0  0  0  0  0  0  0  0
   96.4501   47.9585  267.7397 C   0  0  0  0  0  0  0  0  0  0  0  0
   96.0608   46.7452  267.1831 C   0  0  0  0  0  0  0  0  0  0  0  0
   94.7948   46.5277  266.7655 N   0  0  0  0  0  0  0  0  0  0  0  0
   93.5976   51.0957  268.3217 C   0  0  0  0  0  0  0  0  0  0  0  0
   90.2871   48.1511  266.2958 N   0  0  0  0  0  0  0  0  0  0  0  0
   94.5711   51.9448  267.7868 C   0  0  0  0  0  0  0  0  0  0  0  0
   94.8615   53.1780  268.3681 C   0  0  0  0  0  0  0  0  0  0  0  0
   92.8931   51.4384  269.4756 C   0  0  0  0  0  0  0  0  0  0  0  0
   93.1961   52.6578  270.0710 C   0  0  0  0  0  0  0  0  0  0  0  0
   94.1500   53.5596  269.5095 C   0  0  0  0  0  0  0  0  0  0  0  0
   94.1496   54.7271  270.3451 C   0  0  0  0  0  0  0  0  0  0  0  0
   93.2853   54.4571  271.3772 C   0  0  0  0  0  0  0  0  0  0  0  0
   92.7216   53.2230  271.2344 N   0  0  0  0  0  0  0  0  0  0  0  0
   89.7168   47.3542  265.2854 C   0  0  0  0  0  0  0  0  0  0  0  0
   88.4155   46.8174  265.3915 C   0  0  0  0  0  0  0  0  0  0  0  0
   87.9008   46.1080  264.2919 C   0  0  0  0  0  0  0  0  0  0  0  0
   88.6799   45.9426  263.1569 C   0  0  0  0  0  0  0  0  0  0  0  0
   89.9312   46.4387  263.0407 N   0  0  0  0  0  0  0  0  0  0  0  0
   90.4252   47.1278  264.0989 C   0  0  0  0  0  0  0  0  0  0  0  0
   87.5601   46.9683  266.6297 C   0  0  0  0  0  0  0  0  0  0  0  0
   87.6700   47.9323  267.3876 O   0  0  0  0  0  0  0  0  0  0  0  0
   86.6670   45.9862  266.8167 N   0  0  0  0  0  0  0  0  0  0  0  0
   85.5963   45.9500  267.7902 C   0  0  0  0  0  0  0  0  0  0  0  0
   91.8041   52.6238  272.1856 C   0  0  0  0  0  0  0  0  0  0  0  0
   85.8697   44.9843  268.9505 C   0  0  0  0  0  0  0  0  0  0  0  0
   84.6496   44.8209  269.8728 C   0  0  0  0  0  0  0  0  0  0  0  0
   83.4889   44.4695  269.1237 O   0  0  0  0  0  0  0  0  0  0  0  0
   83.1249   45.4242  268.1288 C   0  0  0  0  0  0  0  0  0  0  0  0
   84.2584   45.6197  267.1140 C   0  0  0  0  0  0  0  0  0  0  0  0
   92.2870   46.4176  266.0089 H   0  0  0  0  0  0  0  0  0  0  0  0
   91.2226   50.2925  267.4444 H   0  0  0  0  0  0  0  0  0  0  0  0
   97.4820   48.1014  268.0247 H   0  0  0  0  0  0  0  0  0  0  0  0
   96.7904   45.9554  267.0820 H   0  0  0  0  0  0  0  0  0  0  0  0
   95.1105   51.6382  266.9028 H   0  0  0  0  0  0  0  0  0  0  0  0
   95.6181   53.8233  267.9468 H   0  0  0  0  0  0  0  0  0  0  0  0
   92.1419   50.7825  269.8902 H   0  0  0  0  0  0  0  0  0  0  0  0
   94.7150   55.6345  270.1926 H   0  0  0  0  0  0  0  0  0  0  0  0
   93.0789   55.1325  272.1942 H   0  0  0  0  0  0  0  0  0  0  0  0
   86.9040   45.6942  264.3312 H   0  0  0  0  0  0  0  0  0  0  0  0
   88.2666   45.3906  262.3257 H   0  0  0  0  0  0  0  0  0  0  0  0
   91.4260   47.5263  264.0219 H   0  0  0  0  0  0  0  0  0  0  0  0
   87.0502   47.8460  268.1024 H   0  0  0  0  0  0  0  0  0  0  0  0
   86.2131   45.8802  265.9320 H   0  0  0  0  0  0  0  0  0  0  0  0
   85.4970   46.9554  268.2252 H   0  0  0  0  0  0  0  0  0  0  0  0
   91.6189   53.3276  273.0105 H   0  0  0  0  0  0  0  0  0  0  0  0
   90.8542   52.3912  271.6820 H   0  0  0  0  0  0  0  0  0  0  0  0
   92.2435   51.6980  272.5854 H   0  0  0  0  0  0  0  0  0  0  0  0
   86.1349   44.0002  268.5368 H   0  0  0  0  0  0  0  0  0  0  0  0
   86.7116   45.3721  269.5428 H   0  0  0  0  0  0  0  0  0  0  0  0
   84.8572   44.0292  270.6078 H   0  0  0  0  0  0  0  0  0  0  0  0
   84.4656   45.7697  270.3980 H   0  0  0  0  0  0  0  0  0  0  0  0
   82.2270   45.0697  267.6014 H   0  0  0  0  0  0  0  0  0  0  0  0
   82.9081   46.3864  268.6158 H   0  0  0  0  0  0  0  0  0  0  0  0
   83.9900   46.4457  266.4389 H   0  0  0  0  0  0  0  0  0  0  0  0
   84.3755   44.6937  266.5320 H   0  0  0  0  0  0  0  0  0  0  0  0
  1  2  2  0  0  0  0
  1  5  1  0  0  0  0
  2  3  1  0  0  0  0
  2 12  1  0  0  0  0
  3  4  2  0  0  0  0
  4  6  1  0  0  0  0
  4 11  1  0  0  0  0
  5  6  2  0  0  0  0
  5 10  1  0  0  0  0
  6  7  1  0  0  0  0
  7  8  2  0  0  0  0
  8  9  1  0  0  0  0
  9 10  2  0  0  0  0
 11 13  2  0  0  0  0
 11 15  1  0  0  0  0
 12 21  2  0  0  0  0
 13 14  1  0  0  0  0
 14 17  2  0  0  0  0
 15 16  2  0  0  0  0
 16 17  1  0  0  0  0
 16 20  1  0  0  0  0
 17 18  1  0  0  0  0
 18 19  2  0  0  0  0
 19 20  1  0  0  0  0
 20 31  1  0  0  0  0
 21 22  1  0  0  0  0
 21 26  1  0  0  0  0
 22 23  1  0  0  0  0
 22 27  2  0  0  0  0
 23 24  2  0  0  0  0
 24 25  1  0  0  0  0
 25 26  2  0  0  0  0
 27 28  1  0  0  0  0
 27 29  1  0  0  0  0
 29 30  1  0  0  0  0
 30 32  1  0  0  0  0
 30 36  1  0  0  0  0
 32 33  1  0  0  0  0
 33 34  1  0  0  0  0
 34 35  1  0  0  0  0
 35 36  1  0  0  0  0
  1 37  1  0  0  0  0
  3 38  1  0  0  0  0
  8 39  1  0  0  0  0
  9 40  1  0  0  0  0
 13 41  1  0  0  0  0
 14 42  1  0  0  0  0
 15 43  1  0  0  0  0
 18 44  1  0  0  0  0
 19 45  1  0  0  0  0
 23 46  1  0  0  0  0
 24 47  1  0  0  0  0
 26 48  1  0  0  0  0
 28 49  1  0  0  0  0
 29 50  1  0  0  0  0
 30 51  1  0  0  0  0
 31 52  1  0  0  0  0
 31 53  1  0  0  0  0
 31 54  1  0  0  0  0
 32 55  1  0  0  0  0
 32 56  1  0  0  0  0
 33 57  1  0  0  0  0
 33 58  1  0  0  0  0
 35 59  1  0  0  0  0
 35 60  1  0  0  0  0
 36 61  1  0  0  0  0
 36 62  1  0  0  0  0
M  END
> <ID>
37

> <IC50[uM]>
0.047

$$$$
