35
  -OEChem-05192314313D
 Structure written by MMmdl.
 50 54  0     0  0  0  0  0  0999 V2000
   91.6086   48.3265  266.6693 C   0  0  0  0  0  0  0  0  0  0  0  0
   91.9732   49.5289  267.2740 C   0  0  0  0  0  0  0  0  0  0  0  0
   93.2849   49.7831  267.6765 C   0  0  0  0  0  0  0  0  0  0  0  0
   94.2756   48.7716  267.5148 C   0  0  0  0  0  0  0  0  0  0  0  0
   93.8941   47.5269  266.9163 C   0  0  0  0  0  0  0  0  0  0  0  0
   92.5664   47.3356  266.4869 C   0  0  0  0  0  0  0  0  0  0  0  0
   93.5944   51.0830  268.3283 C   0  0  0  0  0  0  0  0  0  0  0  0
   92.9019   51.4420  269.4800 C   0  0  0  0  0  0  0  0  0  0  0  0
   93.1886   52.6739  270.0653 C   0  0  0  0  0  0  0  0  0  0  0  0
   94.1369   53.5702  269.4983 C   0  0  0  0  0  0  0  0  0  0  0  0
   94.8396   53.1647  268.3583 C   0  0  0  0  0  0  0  0  0  0  0  0
   94.5632   51.9211  267.7840 C   0  0  0  0  0  0  0  0  0  0  0  0
   94.8011   46.5237  266.7692 N   0  0  0  0  0  0  0  0  0  0  0  0
   96.0655   46.7425  267.1959 C   0  0  0  0  0  0  0  0  0  0  0  0
   96.4524   47.9539  267.7595 C   0  0  0  0  0  0  0  0  0  0  0  0
   95.5606   48.9571  267.9440 N   0  0  0  0  0  0  0  0  0  0  0  0
   90.2742   48.1229  266.3119 N   0  0  0  0  0  0  0  0  0  0  0  0
   94.1551   54.7196  270.3381 C   0  0  0  0  0  0  0  0  0  0  0  0
   93.2925   54.4888  271.3906 C   0  0  0  0  0  0  0  0  0  0  0  0
   92.7216   53.2581  271.2260 N   0  0  0  0  0  0  0  0  0  0  0  0
   91.8085   52.6518  272.1779 C   0  0  0  0  0  0  0  0  0  0  0  0
   89.7147   47.3400  265.2872 C   0  0  0  0  0  0  0  0  0  0  0  0
   88.4272   46.7998  265.4019 C   0  0  0  0  0  0  0  0  0  0  0  0
   87.8901   46.0853  264.3199 C   0  0  0  0  0  0  0  0  0  0  0  0
   88.6593   45.9358  263.1678 C   0  0  0  0  0  0  0  0  0  0  0  0
   89.9101   46.4426  263.0385 N   0  0  0  0  0  0  0  0  0  0  0  0
   90.4183   47.1199  264.0947 C   0  0  0  0  0  0  0  0  0  0  0  0
   87.4704   46.8899  266.9209 S   0  0  0  0  0  0  0  0  0  0  0  0
   86.1418   46.3963  266.6721 O   0  0  0  0  0  0  0  0  0  0  0  0
   87.6670   48.2589  267.4823 O   0  0  0  0  0  0  0  0  0  0  0  0
   88.3758   45.6752  268.0371 C   0  0  0  0  0  0  0  0  0  0  0  0
   91.2190   50.2849  267.4354 H   0  0  0  0  0  0  0  0  0  0  0  0
   92.2889   46.4073  266.0099 H   0  0  0  0  0  0  0  0  0  0  0  0
   92.1615   50.7834  269.9094 H   0  0  0  0  0  0  0  0  0  0  0  0
   95.5907   53.8086  267.9251 H   0  0  0  0  0  0  0  0  0  0  0  0
   95.1084   51.6062  266.9065 H   0  0  0  0  0  0  0  0  0  0  0  0
   96.7963   45.9536  267.0962 H   0  0  0  0  0  0  0  0  0  0  0  0
   97.4812   48.0973  268.0551 H   0  0  0  0  0  0  0  0  0  0  0  0
   89.6095   48.6130  266.8757 H   0  0  0  0  0  0  0  0  0  0  0  0
   94.7401   55.6135  270.1797 H   0  0  0  0  0  0  0  0  0  0  0  0
   93.1006   55.1678  272.2082 H   0  0  0  0  0  0  0  0  0  0  0  0
   91.6174   53.3546  273.0023 H   0  0  0  0  0  0  0  0  0  0  0  0
   90.8606   52.4111  271.6743 H   0  0  0  0  0  0  0  0  0  0  0  0
   92.2554   51.7299  272.5783 H   0  0  0  0  0  0  0  0  0  0  0  0
   86.8994   45.6594  264.3792 H   0  0  0  0  0  0  0  0  0  0  0  0
   88.2384   45.3893  262.3368 H   0  0  0  0  0  0  0  0  0  0  0  0
   91.4212   47.5124  264.0143 H   0  0  0  0  0  0  0  0  0  0  0  0
   87.8789   45.6371  269.0178 H   0  0  0  0  0  0  0  0  0  0  0  0
   88.3603   44.6751  267.5793 H   0  0  0  0  0  0  0  0  0  0  0  0
   89.4178   46.0031  268.1666 H   0  0  0  0  0  0  0  0  0  0  0  0
  1  2  2  0  0  0  0
  1  6  1  0  0  0  0
  1 17  1  0  0  0  0
  2  3  1  0  0  0  0
  3  4  2  0  0  0  0
  3  7  1  0  0  0  0
  4  5  1  0  0  0  0
  4 16  1  0  0  0  0
  5  6  2  0  0  0  0
  5 13  1  0  0  0  0
  7  8  2  0  0  0  0
  7 12  1  0  0  0  0
  8  9  1  0  0  0  0
  9 10  2  0  0  0  0
  9 20  1  0  0  0  0
 10 11  1  0  0  0  0
 10 18  1  0  0  0  0
 11 12  2  0  0  0  0
 13 14  2  0  0  0  0
 14 15  1  0  0  0  0
 15 16  2  0  0  0  0
 17 22  1  0  0  0  0
 18 19  2  0  0  0  0
 19 20  1  0  0  0  0
 20 21  1  0  0  0  0
 22 23  2  0  0  0  0
 22 27  1  0  0  0  0
 23 24  1  0  0  0  0
 23 28  1  0  0  0  0
 24 25  2  0  0  0  0
 25 26  1  0  0  0  0
 26 27  2  0  0  0  0
 28 29  2  0  0  0  0
 28 30  2  0  0  0  0
 28 31  1  0  0  0  0
  2 32  1  0  0  0  0
  6 33  1  0  0  0  0
  8 34  1  0  0  0  0
 11 35  1  0  0  0  0
 12 36  1  0  0  0  0
 14 37  1  0  0  0  0
 15 38  1  0  0  0  0
 17 39  1  0  0  0  0
 18 40  1  0  0  0  0
 19 41  1  0  0  0  0
 21 42  1  0  0  0  0
 21 43  1  0  0  0  0
 21 44  1  0  0  0  0
 24 45  1  0  0  0  0
 25 46  1  0  0  0  0
 27 47  1  0  0  0  0
 31 48  1  0  0  0  0
 31 49  1  0  0  0  0
 31 50  1  0  0  0  0
M  END
> <ID>
35

> <IC50[uM]>
0.037

$$$$
35
  -OEChem-05192314313D
 Structure written by MMmdl.
 50 54  0     0  0  0  0  0  0999 V2000
   91.6086   48.3265  266.6693 C   0  0  0  0  0  0  0  0  0  0  0  0
   91.9732   49.5289  267.2740 C   0  0  0  0  0  0  0  0  0  0  0  0
   93.2849   49.7831  267.6765 C   0  0  0  0  0  0  0  0  0  0  0  0
   94.2756   48.7716  267.5148 C   0  0  0  0  0  0  0  0  0  0  0  0
   93.8941   47.5269  266.9163 C   0  0  0  0  0  0  0  0  0  0  0  0
   92.5664   47.3356  266.4869 C   0  0  0  0  0  0  0  0  0  0  0  0
   93.5944   51.0830  268.3283 C   0  0  0  0  0  0  0  0  0  0  0  0
   92.9019   51.4420  269.4800 C   0  0  0  0  0  0  0  0  0  0  0  0
   93.1886   52.6739  270.0653 C   0  0  0  0  0  0  0  0  0  0  0  0
   94.1369   53.5702  269.4983 C   0  0  0  0  0  0  0  0  0  0  0  0
   94.8396   53.1647  268.3583 C   0  0  0  0  0  0  0  0  0  0  0  0
   94.5632   51.9211  267.7840 C   0  0  0  0  0  0  0  0  0  0  0  0
   94.8011   46.5237  266.7692 N   0  0  0  0  0  0  0  0  0  0  0  0
   96.0655   46.7425  267.1959 C   0  0  0  0  0  0  0  0  0  0  0  0
   96.4524   47.9539  267.7595 C   0  0  0  0  0  0  0  0  0  0  0  0
   95.5606   48.9571  267.9440 N   0  0  0  0  0  0  0  0  0  0  0  0
   90.2742   48.1229  266.3119 N   0  0  0  0  0  0  0  0  0  0  0  0
   94.1551   54.7196  270.3381 C   0  0  0  0  0  0  0  0  0  0  0  0
   93.2925   54.4888  271.3906 C   0  0  0  0  0  0  0  0  0  0  0  0
   92.7216   53.2581  271.2260 N   0  0  0  0  0  0  0  0  0  0  0  0
   91.8085   52.6518  272.1779 C   0  0  0  0  0  0  0  0  0  0  0  0
   89.7147   47.3400  265.2872 C   0  0  0  0  0  0  0  0  0  0  0  0
   88.4272   46.7998  265.4019 C   0  0  0  0  0  0  0  0  0  0  0  0
   87.8901   46.0853  264.3199 C   0  0  0  0  0  0  0  0  0  0  0  0
   88.6593   45.9358  263.1678 C   0  0  0  0  0  0  0  0  0  0  0  0
   89.9101   46.4426  263.0385 N   0  0  0  0  0  0  0  0  0  0  0  0
   90.4183   47.1199  264.0947 C   0  0  0  0  0  0  0  0  0  0  0  0
   87.4704   46.8899  266.9209 S   0  0  0  0  0  0  0  0  0  0  0  0
   86.1418   46.3963  266.6721 O   0  0  0  0  0  0  0  0  0  0  0  0
   87.6670   48.2589  267.4823 O   0  0  0  0  0  0  0  0  0  0  0  0
   88.3758   45.6752  268.0371 C   0  0  0  0  0  0  0  0  0  0  0  0
   91.2190   50.2849  267.4354 H   0  0  0  0  0  0  0  0  0  0  0  0
   92.2889   46.4073  266.0099 H   0  0  0  0  0  0  0  0  0  0  0  0
   92.1615   50.7834  269.9094 H   0  0  0  0  0  0  0  0  0  0  0  0
   95.5907   53.8086  267.9251 H   0  0  0  0  0  0  0  0  0  0  0  0
   95.1084   51.6062  266.9065 H   0  0  0  0  0  0  0  0  0  0  0  0
   94.5405   45.6503  266.3577 H   0  0  0  0  0  0  0  0  0  0  0  0
   96.7963   45.9536  267.0962 H   0  0  0  0  0  0  0  0  0  0  0  0
   97.4812   48.0973  268.0551 H   0  0  0  0  0  0  0  0  0  0  0  0
   94.7401   55.6135  270.1797 H   0  0  0  0  0  0  0  0  0  0  0  0
   93.1006   55.1678  272.2082 H   0  0  0  0  0  0  0  0  0  0  0  0
   91.6174   53.3546  273.0023 H   0  0  0  0  0  0  0  0  0  0  0  0
   90.8606   52.4111  271.6743 H   0  0  0  0  0  0  0  0  0  0  0  0
   92.2554   51.7299  272.5783 H   0  0  0  0  0  0  0  0  0  0  0  0
   86.8994   45.6594  264.3792 H   0  0  0  0  0  0  0  0  0  0  0  0
   88.2384   45.3893  262.3368 H   0  0  0  0  0  0  0  0  0  0  0  0
   91.4212   47.5124  264.0143 H   0  0  0  0  0  0  0  0  0  0  0  0
   87.8789   45.6371  269.0178 H   0  0  0  0  0  0  0  0  0  0  0  0
   88.3603   44.6751  267.5793 H   0  0  0  0  0  0  0  0  0  0  0  0
   89.4178   46.0031  268.1666 H   0  0  0  0  0  0  0  0  0  0  0  0
  1  2  1  0  0  0  0
  1  6  1  0  0  0  0
  1 17  2  0  0  0  0
  2  3  2  0  0  0  0
  3  4  1  0  0  0  0
  3  7  1  0  0  0  0
  4  5  1  0  0  0  0
  4 16  2  0  0  0  0
  5  6  2  0  0  0  0
  5 13  1  0  0  0  0
  7  8  2  0  0  0  0
  7 12  1  0  0  0  0
  8  9  1  0  0  0  0
  9 10  2  0  0  0  0
  9 20  1  0  0  0  0
 10 11  1  0  0  0  0
 10 18  1  0  0  0  0
 11 12  2  0  0  0  0
 13 14  1  0  0  0  0
 14 15  2  0  0  0  0
 15 16  1  0  0  0  0
 17 22  1  0  0  0  0
 18 19  2  0  0  0  0
 19 20  1  0  0  0  0
 20 21  1  0  0  0  0
 22 23  2  0  0  0  0
 22 27  1  0  0  0  0
 23 24  1  0  0  0  0
 23 28  1  0  0  0  0
 24 25  2  0  0  0  0
 25 26  1  0  0  0  0
 26 27  2  0  0  0  0
 28 29  2  0  0  0  0
 28 30  2  0  0  0  0
 28 31  1  0  0  0  0
  2 32  1  0  0  0  0
  6 33  1  0  0  0  0
  8 34  1  0  0  0  0
 11 35  1  0  0  0  0
 12 36  1  0  0  0  0
 13 37  1  0  0  0  0
 14 38  1  0  0  0  0
 15 39  1  0  0  0  0
 18 40  1  0  0  0  0
 19 41  1  0  0  0  0
 21 42  1  0  0  0  0
 21 43  1  0  0  0  0
 21 44  1  0  0  0  0
 24 45  1  0  0  0  0
 25 46  1  0  0  0  0
 27 47  1  0  0  0  0
 31 48  1  0  0  0  0
 31 49  1  0  0  0  0
 31 50  1  0  0  0  0
M  END
> <ID>
35

> <IC50[uM]>
0.037

$$$$
35
  -OEChem-05192314313D
 Structure written by MMmdl.
 50 54  0     0  0  0  0  0  0999 V2000
   91.6086   48.3265  266.6693 C   0  0  0  0  0  0  0  0  0  0  0  0
   91.9732   49.5289  267.2740 C   0  0  0  0  0  0  0  0  0  0  0  0
   93.2849   49.7831  267.6765 C   0  0  0  0  0  0  0  0  0  0  0  0
   94.2756   48.7716  267.5148 C   0  0  0  0  0  0  0  0  0  0  0  0
   93.8941   47.5269  266.9163 C   0  0  0  0  0  0  0  0  0  0  0  0
   92.5664   47.3356  266.4869 C   0  0  0  0  0  0  0  0  0  0  0  0
   93.5944   51.0830  268.3283 C   0  0  0  0  0  0  0  0  0  0  0  0
   92.9019   51.4420  269.4800 C   0  0  0  0  0  0  0  0  0  0  0  0
   93.1886   52.6739  270.0653 C   0  0  0  0  0  0  0  0  0  0  0  0
   94.1369   53.5702  269.4983 C   0  0  0  0  0  0  0  0  0  0  0  0
   94.8396   53.1647  268.3583 C   0  0  0  0  0  0  0  0  0  0  0  0
   94.5632   51.9211  267.7840 C   0  0  0  0  0  0  0  0  0  0  0  0
   94.8011   46.5237  266.7692 N   0  0  0  0  0  0  0  0  0  0  0  0
   96.0655   46.7425  267.1959 C   0  0  0  0  0  0  0  0  0  0  0  0
   96.4524   47.9539  267.7595 C   0  0  0  0  0  0  0  0  0  0  0  0
   95.5606   48.9571  267.9440 N   0  0  0  0  0  0  0  0  0  0  0  0
   90.2742   48.1229  266.3119 N   0  0  0  0  0  0  0  0  0  0  0  0
   94.1551   54.7196  270.3381 C   0  0  0  0  0  0  0  0  0  0  0  0
   93.2925   54.4888  271.3906 C   0  0  0  0  0  0  0  0  0  0  0  0
   92.7216   53.2581  271.2260 N   0  0  0  0  0  0  0  0  0  0  0  0
   91.8085   52.6518  272.1779 C   0  0  0  0  0  0  0  0  0  0  0  0
   89.7147   47.3400  265.2872 C   0  0  0  0  0  0  0  0  0  0  0  0
   88.4272   46.7998  265.4019 C   0  0  0  0  0  0  0  0  0  0  0  0
   87.8901   46.0853  264.3199 C   0  0  0  0  0  0  0  0  0  0  0  0
   88.6593   45.9358  263.1678 C   0  0  0  0  0  0  0  0  0  0  0  0
   89.9101   46.4426  263.0385 N   0  0  0  0  0  0  0  0  0  0  0  0
   90.4183   47.1199  264.0947 C   0  0  0  0  0  0  0  0  0  0  0  0
   87.4704   46.8899  266.9209 S   0  0  0  0  0  0  0  0  0  0  0  0
   86.1418   46.3963  266.6721 O   0  0  0  0  0  0  0  0  0  0  0  0
   87.6670   48.2589  267.4823 O   0  0  0  0  0  0  0  0  0  0  0  0
   88.3758   45.6752  268.0371 C   0  0  0  0  0  0  0  0  0  0  0  0
   91.2190   50.2849  267.4354 H   0  0  0  0  0  0  0  0  0  0  0  0
   92.1945   46.4406  267.0072 H   0  0  0  0  0  0  0  0  0  0  0  0
   92.6119   47.1388  265.4056 H   0  0  0  0  0  0  0  0  0  0  0  0
   92.1615   50.7834  269.9094 H   0  0  0  0  0  0  0  0  0  0  0  0
   95.5907   53.8086  267.9251 H   0  0  0  0  0  0  0  0  0  0  0  0
   95.1084   51.6062  266.9065 H   0  0  0  0  0  0  0  0  0  0  0  0
   96.7963   45.9536  267.0962 H   0  0  0  0  0  0  0  0  0  0  0  0
   97.4812   48.0973  268.0551 H   0  0  0  0  0  0  0  0  0  0  0  0
   94.7401   55.6135  270.1797 H   0  0  0  0  0  0  0  0  0  0  0  0
   93.1006   55.1678  272.2082 H   0  0  0  0  0  0  0  0  0  0  0  0
   91.6174   53.3546  273.0023 H   0  0  0  0  0  0  0  0  0  0  0  0
   90.8606   52.4111  271.6743 H   0  0  0  0  0  0  0  0  0  0  0  0
   92.2554   51.7299  272.5783 H   0  0  0  0  0  0  0  0  0  0  0  0
   86.8994   45.6594  264.3792 H   0  0  0  0  0  0  0  0  0  0  0  0
   88.2384   45.3893  262.3368 H   0  0  0  0  0  0  0  0  0  0  0  0
   91.4212   47.5124  264.0143 H   0  0  0  0  0  0  0  0  0  0  0  0
   87.8789   45.6371  269.0178 H   0  0  0  0  0  0  0  0  0  0  0  0
   88.3603   44.6751  267.5793 H   0  0  0  0  0  0  0  0  0  0  0  0
   89.4178   46.0031  268.1666 H   0  0  0  0  0  0  0  0  0  0  0  0
  1  2  1  0  0  0  0
  1  6  1  0  0  0  0
  1 17  2  0  0  0  0
  2  3  2  0  0  0  0
  3  4  1  0  0  0  0
  3  7  1  0  0  0  0
  4  5  2  0  0  0  0
  4 16  1  0  0  0  0
  5  6  1  0  0  0  0
  5 13  1  0  0  0  0
  7  8  2  0  0  0  0
  7 12  1  0  0  0  0
  8  9  1  0  0  0  0
  9 10  2  0  0  0  0
  9 20  1  0  0  0  0
 10 11  1  0  0  0  0
 10 18  1  0  0  0  0
 11 12  2  0  0  0  0
 13 14  2  0  0  0  0
 14 15  1  0  0  0  0
 15 16  2  0  0  0  0
 17 22  1  0  0  0  0
 18 19  2  0  0  0  0
 19 20  1  0  0  0  0
 20 21  1  0  0  0  0
 22 23  2  0  0  0  0
 22 27  1  0  0  0  0
 23 24  1  0  0  0  0
 23 28  1  0  0  0  0
 24 25  2  0  0  0  0
 25 26  1  0  0  0  0
 26 27  2  0  0  0  0
 28 29  2  0  0  0  0
 28 30  2  0  0  0  0
 28 31  1  0  0  0  0
  2 32  1  0  0  0  0
  6 33  1  0  0  0  0
  6 34  1  0  0  0  0
  8 35  1  0  0  0  0
 11 36  1  0  0  0  0
 12 37  1  0  0  0  0
 14 38  1  0  0  0  0
 15 39  1  0  0  0  0
 18 40  1  0  0  0  0
 19 41  1  0  0  0  0
 21 42  1  0  0  0  0
 21 43  1  0  0  0  0
 21 44  1  0  0  0  0
 24 45  1  0  0  0  0
 25 46  1  0  0  0  0
 27 47  1  0  0  0  0
 31 48  1  0  0  0  0
 31 49  1  0  0  0  0
 31 50  1  0  0  0  0
M  END
> <ID>
35

> <IC50[uM]>
0.037

$$$$
35
  -OEChem-05192314313D
 Structure written by MMmdl.
 50 54  0     0  0  0  0  0  0999 V2000
   91.6086   48.3265  266.6693 C   0  0  0  0  0  0  0  0  0  0  0  0
   91.9732   49.5289  267.2740 C   0  0  0  0  0  0  0  0  0  0  0  0
   93.2849   49.7831  267.6765 C   0  0  0  0  0  0  0  0  0  0  0  0
   94.2756   48.7716  267.5148 C   0  0  0  0  0  0  0  0  0  0  0  0
   93.8941   47.5269  266.9163 C   0  0  0  0  0  0  0  0  0  0  0  0
   92.5664   47.3356  266.4869 C   0  0  0  0  0  0  0  0  0  0  0  0
   93.5944   51.0830  268.3283 C   0  0  0  0  0  0  0  0  0  0  0  0
   92.9019   51.4420  269.4800 C   0  0  0  0  0  0  0  0  0  0  0  0
   93.1886   52.6739  270.0653 C   0  0  0  0  0  0  0  0  0  0  0  0
   94.1369   53.5702  269.4983 C   0  0  0  0  0  0  0  0  0  0  0  0
   94.8396   53.1647  268.3583 C   0  0  0  0  0  0  0  0  0  0  0  0
   94.5632   51.9211  267.7840 C   0  0  0  0  0  0  0  0  0  0  0  0
   94.8011   46.5237  266.7692 N   0  0  0  0  0  0  0  0  0  0  0  0
   96.0655   46.7425  267.1959 C   0  0  0  0  0  0  0  0  0  0  0  0
   96.4524   47.9539  267.7595 C   0  0  0  0  0  0  0  0  0  0  0  0
   95.5606   48.9571  267.9440 N   0  0  0  0  0  0  0  0  0  0  0  0
   90.2742   48.1229  266.3119 N   0  0  0  0  0  0  0  0  0  0  0  0
   94.1551   54.7196  270.3381 C   0  0  0  0  0  0  0  0  0  0  0  0
   93.2925   54.4888  271.3906 C   0  0  0  0  0  0  0  0  0  0  0  0
   92.7216   53.2581  271.2260 N   0  0  0  0  0  0  0  0  0  0  0  0
   91.8085   52.6518  272.1779 C   0  0  0  0  0  0  0  0  0  0  0  0
   89.7147   47.3400  265.2872 C   0  0  0  0  0  0  0  0  0  0  0  0
   88.4272   46.7998  265.4019 C   0  0  0  0  0  0  0  0  0  0  0  0
   87.8901   46.0853  264.3199 C   0  0  0  0  0  0  0  0  0  0  0  0
   88.6593   45.9358  263.1678 C   0  0  0  0  0  0  0  0  0  0  0  0
   89.9101   46.4426  263.0385 N   0  0  0  0  0  0  0  0  0  0  0  0
   90.4183   47.1199  264.0947 C   0  0  0  0  0  0  0  0  0  0  0  0
   87.4704   46.8899  266.9209 S   0  0  0  0  0  0  0  0  0  0  0  0
   86.1418   46.3963  266.6721 O   0  0  0  0  0  0  0  0  0  0  0  0
   87.6670   48.2589  267.4823 O   0  0  0  0  0  0  0  0  0  0  0  0
   88.3758   45.6752  268.0371 C   0  0  0  0  0  0  0  0  0  0  0  0
   91.7092   50.3248  266.5620 H   0  0  0  0  0  0  0  0  0  0  0  0
   91.3502   49.6221  268.1758 H   0  0  0  0  0  0  0  0  0  0  0  0
   92.2889   46.4073  266.0099 H   0  0  0  0  0  0  0  0  0  0  0  0
   92.1615   50.7834  269.9094 H   0  0  0  0  0  0  0  0  0  0  0  0
   95.5907   53.8086  267.9251 H   0  0  0  0  0  0  0  0  0  0  0  0
   95.1084   51.6062  266.9065 H   0  0  0  0  0  0  0  0  0  0  0  0
   96.7963   45.9536  267.0962 H   0  0  0  0  0  0  0  0  0  0  0  0
   97.4812   48.0973  268.0551 H   0  0  0  0  0  0  0  0  0  0  0  0
   94.7401   55.6135  270.1797 H   0  0  0  0  0  0  0  0  0  0  0  0
   93.1006   55.1678  272.2082 H   0  0  0  0  0  0  0  0  0  0  0  0
   91.6174   53.3546  273.0023 H   0  0  0  0  0  0  0  0  0  0  0  0
   90.8606   52.4111  271.6743 H   0  0  0  0  0  0  0  0  0  0  0  0
   92.2554   51.7299  272.5783 H   0  0  0  0  0  0  0  0  0  0  0  0
   86.8994   45.6594  264.3792 H   0  0  0  0  0  0  0  0  0  0  0  0
   88.2384   45.3893  262.3368 H   0  0  0  0  0  0  0  0  0  0  0  0
   91.4212   47.5124  264.0143 H   0  0  0  0  0  0  0  0  0  0  0  0
   87.8789   45.6371  269.0178 H   0  0  0  0  0  0  0  0  0  0  0  0
   88.3603   44.6751  267.5793 H   0  0  0  0  0  0  0  0  0  0  0  0
   89.4178   46.0031  268.1666 H   0  0  0  0  0  0  0  0  0  0  0  0
  1  2  1  0  0  0  0
  1  6  1  0  0  0  0
  1 17  2  0  0  0  0
  2  3  1  0  0  0  0
  3  4  2  0  0  0  0
  3  7  1  0  0  0  0
  4  5  1  0  0  0  0
  4 16  1  0  0  0  0
  5  6  2  0  0  0  0
  5 13  1  0  0  0  0
  7  8  2  0  0  0  0
  7 12  1  0  0  0  0
  8  9  1  0  0  0  0
  9 10  2  0  0  0  0
  9 20  1  0  0  0  0
 10 11  1  0  0  0  0
 10 18  1  0  0  0  0
 11 12  2  0  0  0  0
 13 14  2  0  0  0  0
 14 15  1  0  0  0  0
 15 16  2  0  0  0  0
 17 22  1  0  0  0  0
 18 19  2  0  0  0  0
 19 20  1  0  0  0  0
 20 21  1  0  0  0  0
 22 23  2  0  0  0  0
 22 27  1  0  0  0  0
 23 24  1  0  0  0  0
 23 28  1  0  0  0  0
 24 25  2  0  0  0  0
 25 26  1  0  0  0  0
 26 27  2  0  0  0  0
 28 29  2  0  0  0  0
 28 30  2  0  0  0  0
 28 31  1  0  0  0  0
  2 32  1  0  0  0  0
  2 33  1  0  0  0  0
  6 34  1  0  0  0  0
  8 35  1  0  0  0  0
 11 36  1  0  0  0  0
 12 37  1  0  0  0  0
 14 38  1  0  0  0  0
 15 39  1  0  0  0  0
 18 40  1  0  0  0  0
 19 41  1  0  0  0  0
 21 42  1  0  0  0  0
 21 43  1  0  0  0  0
 21 44  1  0  0  0  0
 24 45  1  0  0  0  0
 25 46  1  0  0  0  0
 27 47  1  0  0  0  0
 31 48  1  0  0  0  0
 31 49  1  0  0  0  0
 31 50  1  0  0  0  0
M  END
> <ID>
35

> <IC50[uM]>
0.037

$$$$
35
  -OEChem-05192314313D
 Structure written by MMmdl.
 50 54  0     1  0  0  0  0  0999 V2000
   91.6086   48.3265  266.6693 C   0  0  0  0  0  0  0  0  0  0  0  0
   91.9732   49.5289  267.2740 C   0  0  0  0  0  0  0  0  0  0  0  0
   93.2849   49.7831  267.6765 C   0  0  0  0  0  0  0  0  0  0  0  0
   94.2756   48.7716  267.5148 C   0  0  0  0  0  0  0  0  0  0  0  0
   93.8941   47.5269  266.9163 C   0  0  0  0  0  0  0  0  0  0  0  0
   92.5664   47.3356  266.4869 C   0  0  0  0  0  0  0  0  0  0  0  0
   93.5944   51.0830  268.3283 C   0  0  0  0  0  0  0  0  0  0  0  0
   92.9019   51.4420  269.4800 C   0  0  0  0  0  0  0  0  0  0  0  0
   93.1886   52.6739  270.0653 C   0  0  0  0  0  0  0  0  0  0  0  0
   94.1369   53.5702  269.4983 C   0  0  0  0  0  0  0  0  0  0  0  0
   94.8396   53.1647  268.3583 C   0  0  0  0  0  0  0  0  0  0  0  0
   94.5632   51.9211  267.7840 C   0  0  0  0  0  0  0  0  0  0  0  0
   94.8011   46.5237  266.7692 N   0  0  0  0  0  0  0  0  0  0  0  0
   96.0655   46.7425  267.1959 C   0  0  0  0  0  0  0  0  0  0  0  0
   96.4524   47.9539  267.7595 C   0  0  0  0  0  0  0  0  0  0  0  0
   95.5606   48.9571  267.9440 N   0  0  0  0  0  0  0  0  0  0  0  0
   90.2742   48.1229  266.3119 N   0  0  0  0  0  0  0  0  0  0  0  0
   94.1551   54.7196  270.3381 C   0  0  0  0  0  0  0  0  0  0  0  0
   93.2925   54.4888  271.3906 C   0  0  0  0  0  0  0  0  0  0  0  0
   92.7216   53.2581  271.2260 N   0  0  0  0  0  0  0  0  0  0  0  0
   91.8085   52.6518  272.1779 C   0  0  0  0  0  0  0  0  0  0  0  0
   89.7147   47.3400  265.2872 C   0  0  0  0  0  0  0  0  0  0  0  0
   88.4272   46.7998  265.4019 C   0  0  3  0  0  0  0  0  0  0  0  0
   87.8901   46.0853  264.3199 C   0  0  0  0  0  0  0  0  0  0  0  0
   88.6593   45.9358  263.1678 C   0  0  0  0  0  0  0  0  0  0  0  0
   89.9101   46.4426  263.0385 N   0  0  0  0  0  0  0  0  0  0  0  0
   90.4183   47.1199  264.0947 C   0  0  0  0  0  0  0  0  0  0  0  0
   87.4704   46.8899  266.9209 S   0  0  0  0  0  0  0  0  0  0  0  0
   86.1418   46.3963  266.6721 O   0  0  0  0  0  0  0  0  0  0  0  0
   87.6670   48.2589  267.4823 O   0  0  0  0  0  0  0  0  0  0  0  0
   88.3758   45.6752  268.0371 C   0  0  0  0  0  0  0  0  0  0  0  0
   91.2190   50.2849  267.4354 H   0  0  0  0  0  0  0  0  0  0  0  0
   92.2889   46.4073  266.0099 H   0  0  0  0  0  0  0  0  0  0  0  0
   92.1615   50.7834  269.9094 H   0  0  0  0  0  0  0  0  0  0  0  0
   95.5907   53.8086  267.9251 H   0  0  0  0  0  0  0  0  0  0  0  0
   95.1084   51.6062  266.9065 H   0  0  0  0  0  0  0  0  0  0  0  0
   96.7963   45.9536  267.0962 H   0  0  0  0  0  0  0  0  0  0  0  0
   97.4812   48.0973  268.0551 H   0  0  0  0  0  0  0  0  0  0  0  0
   94.7401   55.6135  270.1797 H   0  0  0  0  0  0  0  0  0  0  0  0
   93.1006   55.1678  272.2082 H   0  0  0  0  0  0  0  0  0  0  0  0
   91.6174   53.3546  273.0023 H   0  0  0  0  0  0  0  0  0  0  0  0
   90.8606   52.4111  271.6743 H   0  0  0  0  0  0  0  0  0  0  0  0
   92.2554   51.7299  272.5783 H   0  0  0  0  0  0  0  0  0  0  0  0
   87.9759   47.7353  265.0397 H   0  0  0  0  0  0  0  0  0  0  0  0
   86.8994   45.6594  264.3792 H   0  0  0  0  0  0  0  0  0  0  0  0
   88.2384   45.3893  262.3368 H   0  0  0  0  0  0  0  0  0  0  0  0
   91.4212   47.5124  264.0143 H   0  0  0  0  0  0  0  0  0  0  0  0
   87.8789   45.6371  269.0178 H   0  0  0  0  0  0  0  0  0  0  0  0
   88.3603   44.6751  267.5793 H   0  0  0  0  0  0  0  0  0  0  0  0
   89.4178   46.0031  268.1666 H   0  0  0  0  0  0  0  0  0  0  0  0
  1  2  2  0  0  0  0
  1  6  1  0  0  0  0
  1 17  1  0  0  0  0
  2  3  1  0  0  0  0
  3  4  2  0  0  0  0
  3  7  1  0  0  0  0
  4  5  1  0  0  0  0
  4 16  1  0  0  0  0
  5  6  2  0  0  0  0
  5 13  1  0  0  0  0
  7  8  2  0  0  0  0
  7 12  1  0  0  0  0
  8  9  1  0  0  0  0
  9 10  2  0  0  0  0
  9 20  1  0  0  0  0
 10 11  1  0  0  0  0
 10 18  1  0  0  0  0
 11 12  2  0  0  0  0
 13 14  2  0  0  0  0
 14 15  1  0  0  0  0
 15 16  2  0  0  0  0
 17 22  2  0  0  0  0
 18 19  2  0  0  0  0
 19 20  1  0  0  0  0
 20 21  1  0  0  0  0
 22 23  1  0  0  0  0
 22 27  1  0  0  0  0
 23 24  1  0  0  0  0
 23 28  1  0  0  0  0
 24 25  2  0  0  0  0
 25 26  1  0  0  0  0
 26 27  2  0  0  0  0
 28 29  2  0  0  0  0
 28 30  2  0  0  0  0
 28 31  1  0  0  0  0
  2 32  1  0  0  0  0
  6 33  1  0  0  0  0
  8 34  1  0  0  0  0
 11 35  1  0  0  0  0
 12 36  1  0  0  0  0
 14 37  1  0  0  0  0
 15 38  1  0  0  0  0
 18 39  1  0  0  0  0
 19 40  1  0  0  0  0
 21 41  1  0  0  0  0
 21 42  1  0  0  0  0
 21 43  1  0  0  0  0
 23 44  1  0  0  0  0
 24 45  1  0  0  0  0
 25 46  1  0  0  0  0
 27 47  1  0  0  0  0
 31 48  1  0  0  0  0
 31 49  1  0  0  0  0
 31 50  1  0  0  0  0
M  END
> <ID>
35

> <IC50[uM]>
0.037

$$$$
35
  -OEChem-05192314313D
 Structure written by MMmdl.
 50 54  0     0  0  0  0  0  0999 V2000
   91.6086   48.3265  266.6693 C   0  0  0  0  0  0  0  0  0  0  0  0
   91.9732   49.5289  267.2740 C   0  0  0  0  0  0  0  0  0  0  0  0
   93.2849   49.7831  267.6765 C   0  0  0  0  0  0  0  0  0  0  0  0
   94.2756   48.7716  267.5148 C   0  0  0  0  0  0  0  0  0  0  0  0
   93.8941   47.5269  266.9163 C   0  0  0  0  0  0  0  0  0  0  0  0
   92.5664   47.3356  266.4869 C   0  0  0  0  0  0  0  0  0  0  0  0
   93.5944   51.0830  268.3283 C   0  0  0  0  0  0  0  0  0  0  0  0
   92.9019   51.4420  269.4800 C   0  0  0  0  0  0  0  0  0  0  0  0
   93.1886   52.6739  270.0653 C   0  0  0  0  0  0  0  0  0  0  0  0
   94.1369   53.5702  269.4983 C   0  0  0  0  0  0  0  0  0  0  0  0
   94.8396   53.1647  268.3583 C   0  0  0  0  0  0  0  0  0  0  0  0
   94.5632   51.9211  267.7840 C   0  0  0  0  0  0  0  0  0  0  0  0
   94.8011   46.5237  266.7692 N   0  0  0  0  0  0  0  0  0  0  0  0
   96.0655   46.7425  267.1959 C   0  0  0  0  0  0  0  0  0  0  0  0
   96.4524   47.9539  267.7595 C   0  0  0  0  0  0  0  0  0  0  0  0
   95.5606   48.9571  267.9440 N   0  0  0  0  0  0  0  0  0  0  0  0
   90.2742   48.1229  266.3119 N   0  0  0  0  0  0  0  0  0  0  0  0
   94.1551   54.7196  270.3381 C   0  0  0  0  0  0  0  0  0  0  0  0
   93.2925   54.4888  271.3906 C   0  0  0  0  0  0  0  0  0  0  0  0
   92.7216   53.2581  271.2260 N   0  0  0  0  0  0  0  0  0  0  0  0
   91.8085   52.6518  272.1779 C   0  0  0  0  0  0  0  0  0  0  0  0
   89.7147   47.3400  265.2872 C   0  0  0  0  0  0  0  0  0  0  0  0
   88.4272   46.7998  265.4019 C   0  0  0  0  0  0  0  0  0  0  0  0
   87.8901   46.0853  264.3199 C   0  0  0  0  0  0  0  0  0  0  0  0
   88.6593   45.9358  263.1678 C   0  0  0  0  0  0  0  0  0  0  0  0
   89.9101   46.4426  263.0385 N   0  0  0  0  0  0  0  0  0  0  0  0
   90.4183   47.1199  264.0947 C   0  0  0  0  0  0  0  0  0  0  0  0
   87.4704   46.8899  266.9209 S   0  0  0  0  0  0  0  0  0  0  0  0
   86.1418   46.3963  266.6721 O   0  0  0  0  0  0  0  0  0  0  0  0
   87.6670   48.2589  267.4823 O   0  0  0  0  0  0  0  0  0  0  0  0
   88.3758   45.6752  268.0371 C   0  0  0  0  0  0  0  0  0  0  0  0
   91.2190   50.2849  267.4354 H   0  0  0  0  0  0  0  0  0  0  0  0
   92.2889   46.4073  266.0099 H   0  0  0  0  0  0  0  0  0  0  0  0
   92.1615   50.7834  269.9094 H   0  0  0  0  0  0  0  0  0  0  0  0
   95.5907   53.8086  267.9251 H   0  0  0  0  0  0  0  0  0  0  0  0
   95.1084   51.6062  266.9065 H   0  0  0  0  0  0  0  0  0  0  0  0
   96.7963   45.9536  267.0962 H   0  0  0  0  0  0  0  0  0  0  0  0
   97.4812   48.0973  268.0551 H   0  0  0  0  0  0  0  0  0  0  0  0
   94.7401   55.6135  270.1797 H   0  0  0  0  0  0  0  0  0  0  0  0
   93.1006   55.1678  272.2082 H   0  0  0  0  0  0  0  0  0  0  0  0
   91.6174   53.3546  273.0023 H   0  0  0  0  0  0  0  0  0  0  0  0
   90.8606   52.4111  271.6743 H   0  0  0  0  0  0  0  0  0  0  0  0
   92.2554   51.7299  272.5783 H   0  0  0  0  0  0  0  0  0  0  0  0
   86.8994   45.6594  264.3792 H   0  0  0  0  0  0  0  0  0  0  0  0
   88.7547   44.8518  263.0070 H   0  0  0  0  0  0  0  0  0  0  0  0
   88.0689   46.3770  262.3512 H   0  0  0  0  0  0  0  0  0  0  0  0
   91.4212   47.5124  264.0143 H   0  0  0  0  0  0  0  0  0  0  0  0
   87.8789   45.6371  269.0178 H   0  0  0  0  0  0  0  0  0  0  0  0
   88.3603   44.6751  267.5793 H   0  0  0  0  0  0  0  0  0  0  0  0
   89.4178   46.0031  268.1666 H   0  0  0  0  0  0  0  0  0  0  0  0
  1  2  2  0  0  0  0
  1  6  1  0  0  0  0
  1 17  1  0  0  0  0
  2  3  1  0  0  0  0
  3  4  2  0  0  0  0
  3  7  1  0  0  0  0
  4  5  1  0  0  0  0
  4 16  1  0  0  0  0
  5  6  2  0  0  0  0
  5 13  1  0  0  0  0
  7  8  2  0  0  0  0
  7 12  1  0  0  0  0
  8  9  1  0  0  0  0
  9 10  2  0  0  0  0
  9 20  1  0  0  0  0
 10 11  1  0  0  0  0
 10 18  1  0  0  0  0
 11 12  2  0  0  0  0
 13 14  2  0  0  0  0
 14 15  1  0  0  0  0
 15 16  2  0  0  0  0
 17 22  2  0  0  0  0
 18 19  2  0  0  0  0
 19 20  1  0  0  0  0
 20 21  1  0  0  0  0
 22 23  1  0  0  0  0
 22 27  1  0  0  0  0
 23 24  2  0  0  0  0
 23 28  1  0  0  0  0
 24 25  1  0  0  0  0
 25 26  1  0  0  0  0
 26 27  2  0  0  0  0
 28 29  2  0  0  0  0
 28 30  2  0  0  0  0
 28 31  1  0  0  0  0
  2 32  1  0  0  0  0
  6 33  1  0  0  0  0
  8 34  1  0  0  0  0
 11 35  1  0  0  0  0
 12 36  1  0  0  0  0
 14 37  1  0  0  0  0
 15 38  1  0  0  0  0
 18 39  1  0  0  0  0
 19 40  1  0  0  0  0
 21 41  1  0  0  0  0
 21 42  1  0  0  0  0
 21 43  1  0  0  0  0
 24 44  1  0  0  0  0
 25 45  1  0  0  0  0
 25 46  1  0  0  0  0
 27 47  1  0  0  0  0
 31 48  1  0  0  0  0
 31 49  1  0  0  0  0
 31 50  1  0  0  0  0
M  END
> <ID>
35

> <IC50[uM]>
0.037

$$$$
35
  -OEChem-05192314313D
 Structure written by MMmdl.
 50 54  0     0  0  0  0  0  0999 V2000
   91.6086   48.3265  266.6693 C   0  0  0  0  0  0  0  0  0  0  0  0
   91.9732   49.5289  267.2740 C   0  0  0  0  0  0  0  0  0  0  0  0
   93.2849   49.7831  267.6765 C   0  0  0  0  0  0  0  0  0  0  0  0
   94.2756   48.7716  267.5148 C   0  0  0  0  0  0  0  0  0  0  0  0
   93.8941   47.5269  266.9163 C   0  0  0  0  0  0  0  0  0  0  0  0
   92.5664   47.3356  266.4869 C   0  0  0  0  0  0  0  0  0  0  0  0
   93.5944   51.0830  268.3283 C   0  0  0  0  0  0  0  0  0  0  0  0
   92.9019   51.4420  269.4800 C   0  0  0  0  0  0  0  0  0  0  0  0
   93.1886   52.6739  270.0653 C   0  0  0  0  0  0  0  0  0  0  0  0
   94.1369   53.5702  269.4983 C   0  0  0  0  0  0  0  0  0  0  0  0
   94.8396   53.1647  268.3583 C   0  0  0  0  0  0  0  0  0  0  0  0
   94.5632   51.9211  267.7840 C   0  0  0  0  0  0  0  0  0  0  0  0
   94.8011   46.5237  266.7692 N   0  0  0  0  0  0  0  0  0  0  0  0
   96.0655   46.7425  267.1959 C   0  0  0  0  0  0  0  0  0  0  0  0
   96.4524   47.9539  267.7595 C   0  0  0  0  0  0  0  0  0  0  0  0
   95.5606   48.9571  267.9440 N   0  0  0  0  0  0  0  0  0  0  0  0
   90.2742   48.1229  266.3119 N   0  0  0  0  0  0  0  0  0  0  0  0
   94.1551   54.7196  270.3381 C   0  0  0  0  0  0  0  0  0  0  0  0
   93.2925   54.4888  271.3906 C   0  0  0  0  0  0  0  0  0  0  0  0
   92.7216   53.2581  271.2260 N   0  0  0  0  0  0  0  0  0  0  0  0
   91.8085   52.6518  272.1779 C   0  0  0  0  0  0  0  0  0  0  0  0
   89.7147   47.3400  265.2872 C   0  0  0  0  0  0  0  0  0  0  0  0
   88.4272   46.7998  265.4019 C   0  0  0  0  0  0  0  0  0  0  0  0
   87.8901   46.0853  264.3199 C   0  0  0  0  0  0  0  0  0  0  0  0
   88.6593   45.9358  263.1678 C   0  0  0  0  0  0  0  0  0  0  0  0
   89.9101   46.4426  263.0385 N   0  0  0  0  0  0  0  0  0  0  0  0
   90.4183   47.1199  264.0947 C   0  0  0  0  0  0  0  0  0  0  0  0
   87.4704   46.8899  266.9209 S   0  0  0  0  0  0  0  0  0  0  0  0
   86.1418   46.3963  266.6721 O   0  0  0  0  0  0  0  0  0  0  0  0
   87.6670   48.2589  267.4823 O   0  0  0  0  0  0  0  0  0  0  0  0
   88.3758   45.6752  268.0371 C   0  0  0  0  0  0  0  0  0  0  0  0
   91.2190   50.2849  267.4354 H   0  0  0  0  0  0  0  0  0  0  0  0
   92.2889   46.4073  266.0099 H   0  0  0  0  0  0  0  0  0  0  0  0
   92.1615   50.7834  269.9094 H   0  0  0  0  0  0  0  0  0  0  0  0
   95.5907   53.8086  267.9251 H   0  0  0  0  0  0  0  0  0  0  0  0
   95.1084   51.6062  266.9065 H   0  0  0  0  0  0  0  0  0  0  0  0
   96.7963   45.9536  267.0962 H   0  0  0  0  0  0  0  0  0  0  0  0
   97.4812   48.0973  268.0551 H   0  0  0  0  0  0  0  0  0  0  0  0
   94.7401   55.6135  270.1797 H   0  0  0  0  0  0  0  0  0  0  0  0
   93.1006   55.1678  272.2082 H   0  0  0  0  0  0  0  0  0  0  0  0
   91.6174   53.3546  273.0023 H   0  0  0  0  0  0  0  0  0  0  0  0
   90.8606   52.4111  271.6743 H   0  0  0  0  0  0  0  0  0  0  0  0
   92.2554   51.7299  272.5783 H   0  0  0  0  0  0  0  0  0  0  0  0
   86.8994   45.6594  264.3792 H   0  0  0  0  0  0  0  0  0  0  0  0
   88.2384   45.3893  262.3368 H   0  0  0  0  0  0  0  0  0  0  0  0
   90.6811   48.1175  263.7130 H   0  0  0  0  0  0  0  0  0  0  0  0
   91.3350   46.5839  264.3818 H   0  0  0  0  0  0  0  0  0  0  0  0
   87.8789   45.6371  269.0178 H   0  0  0  0  0  0  0  0  0  0  0  0
   88.3603   44.6751  267.5793 H   0  0  0  0  0  0  0  0  0  0  0  0
   89.4178   46.0031  268.1666 H   0  0  0  0  0  0  0  0  0  0  0  0
  1  2  2  0  0  0  0
  1  6  1  0  0  0  0
  1 17  1  0  0  0  0
  2  3  1  0  0  0  0
  3  4  2  0  0  0  0
  3  7  1  0  0  0  0
  4  5  1  0  0  0  0
  4 16  1  0  0  0  0
  5  6  2  0  0  0  0
  5 13  1  0  0  0  0
  7  8  2  0  0  0  0
  7 12  1  0  0  0  0
  8  9  1  0  0  0  0
  9 10  2  0  0  0  0
  9 20  1  0  0  0  0
 10 11  1  0  0  0  0
 10 18  1  0  0  0  0
 11 12  2  0  0  0  0
 13 14  2  0  0  0  0
 14 15  1  0  0  0  0
 15 16  2  0  0  0  0
 17 22  2  0  0  0  0
 18 19  2  0  0  0  0
 19 20  1  0  0  0  0
 20 21  1  0  0  0  0
 22 23  1  0  0  0  0
 22 27  1  0  0  0  0
 23 24  2  0  0  0  0
 23 28  1  0  0  0  0
 24 25  1  0  0  0  0
 25 26  2  0  0  0  0
 26 27  1  0  0  0  0
 28 29  2  0  0  0  0
 28 30  2  0  0  0  0
 28 31  1  0  0  0  0
  2 32  1  0  0  0  0
  6 33  1  0  0  0  0
  8 34  1  0  0  0  0
 11 35  1  0  0  0  0
 12 36  1  0  0  0  0
 14 37  1  0  0  0  0
 15 38  1  0  0  0  0
 18 39  1  0  0  0  0
 19 40  1  0  0  0  0
 21 41  1  0  0  0  0
 21 42  1  0  0  0  0
 21 43  1  0  0  0  0
 24 44  1  0  0  0  0
 25 45  1  0  0  0  0
 27 46  1  0  0  0  0
 27 47  1  0  0  0  0
 31 48  1  0  0  0  0
 31 49  1  0  0  0  0
 31 50  1  0  0  0  0
M  END
> <ID>
35

> <IC50[uM]>
0.037

$$$$
35
  -OEChem-05192314313D
 Structure written by MMmdl.
 50 54  0     1  0  0  0  0  0999 V2000
   91.6086   48.3265  266.6693 C   0  0  0  0  0  0  0  0  0  0  0  0
   91.9732   49.5289  267.2740 C   0  0  0  0  0  0  0  0  0  0  0  0
   93.2849   49.7831  267.6765 C   0  0  0  0  0  0  0  0  0  0  0  0
   94.2756   48.7716  267.5148 C   0  0  3  0  0  0  0  0  0  0  0  0
   93.8941   47.5269  266.9163 C   0  0  0  0  0  0  0  0  0  0  0  0
   92.5664   47.3356  266.4869 C   0  0  0  0  0  0  0  0  0  0  0  0
   93.5944   51.0830  268.3283 C   0  0  0  0  0  0  0  0  0  0  0  0
   92.9019   51.4420  269.4800 C   0  0  0  0  0  0  0  0  0  0  0  0
   93.1886   52.6739  270.0653 C   0  0  0  0  0  0  0  0  0  0  0  0
   94.1369   53.5702  269.4983 C   0  0  0  0  0  0  0  0  0  0  0  0
   94.8396   53.1647  268.3583 C   0  0  0  0  0  0  0  0  0  0  0  0
   94.5632   51.9211  267.7840 C   0  0  0  0  0  0  0  0  0  0  0  0
   94.8011   46.5237  266.7692 N   0  0  0  0  0  0  0  0  0  0  0  0
   96.0655   46.7425  267.1959 C   0  0  0  0  0  0  0  0  0  0  0  0
   96.4524   47.9539  267.7595 C   0  0  0  0  0  0  0  0  0  0  0  0
   95.5606   48.9571  267.9440 N   0  0  0  0  0  0  0  0  0  0  0  0
   90.2742   48.1229  266.3119 N   0  0  0  0  0  0  0  0  0  0  0  0
   94.1551   54.7196  270.3381 C   0  0  0  0  0  0  0  0  0  0  0  0
   93.2925   54.4888  271.3906 C   0  0  0  0  0  0  0  0  0  0  0  0
   92.7216   53.2581  271.2260 N   0  0  0  0  0  0  0  0  0  0  0  0
   91.8085   52.6518  272.1779 C   0  0  0  0  0  0  0  0  0  0  0  0
   89.7147   47.3400  265.2872 C   0  0  0  0  0  0  0  0  0  0  0  0
   88.4272   46.7998  265.4019 C   0  0  0  0  0  0  0  0  0  0  0  0
   87.8901   46.0853  264.3199 C   0  0  0  0  0  0  0  0  0  0  0  0
   88.6593   45.9358  263.1678 C   0  0  0  0  0  0  0  0  0  0  0  0
   89.9101   46.4426  263.0385 N   0  0  0  0  0  0  0  0  0  0  0  0
   90.4183   47.1199  264.0947 C   0  0  0  0  0  0  0  0  0  0  0  0
   87.4704   46.8899  266.9209 S   0  0  0  0  0  0  0  0  0  0  0  0
   86.1418   46.3963  266.6721 O   0  0  0  0  0  0  0  0  0  0  0  0
   87.6670   48.2589  267.4823 O   0  0  0  0  0  0  0  0  0  0  0  0
   88.3758   45.6752  268.0371 C   0  0  0  0  0  0  0  0  0  0  0  0
   91.2190   50.2849  267.4354 H   0  0  0  0  0  0  0  0  0  0  0  0
   94.5385   49.1757  266.5261 H   0  0  0  0  0  0  0  0  0  0  0  0
   92.2889   46.4073  266.0099 H   0  0  0  0  0  0  0  0  0  0  0  0
   92.1615   50.7834  269.9094 H   0  0  0  0  0  0  0  0  0  0  0  0
   95.5907   53.8086  267.9251 H   0  0  0  0  0  0  0  0  0  0  0  0
   95.1084   51.6062  266.9065 H   0  0  0  0  0  0  0  0  0  0  0  0
   96.7963   45.9536  267.0962 H   0  0  0  0  0  0  0  0  0  0  0  0
   97.4812   48.0973  268.0551 H   0  0  0  0  0  0  0  0  0  0  0  0
   94.7401   55.6135  270.1797 H   0  0  0  0  0  0  0  0  0  0  0  0
   93.1006   55.1678  272.2082 H   0  0  0  0  0  0  0  0  0  0  0  0
   91.6174   53.3546  273.0023 H   0  0  0  0  0  0  0  0  0  0  0  0
   90.8606   52.4111  271.6743 H   0  0  0  0  0  0  0  0  0  0  0  0
   92.2554   51.7299  272.5783 H   0  0  0  0  0  0  0  0  0  0  0  0
   86.8994   45.6594  264.3792 H   0  0  0  0  0  0  0  0  0  0  0  0
   88.2384   45.3893  262.3368 H   0  0  0  0  0  0  0  0  0  0  0  0
   91.4212   47.5124  264.0143 H   0  0  0  0  0  0  0  0  0  0  0  0
   87.8789   45.6371  269.0178 H   0  0  0  0  0  0  0  0  0  0  0  0
   88.3603   44.6751  267.5793 H   0  0  0  0  0  0  0  0  0  0  0  0
   89.4178   46.0031  268.1666 H   0  0  0  0  0  0  0  0  0  0  0  0
  1  2  1  0  0  0  0
  1  6  1  0  0  0  0
  1 17  2  0  0  0  0
  2  3  2  0  0  0  0
  3  4  1  0  0  0  0
  3  7  1  0  0  0  0
  4  5  1  0  0  0  0
  4 16  1  0  0  0  0
  5  6  2  0  0  0  0
  5 13  1  0  0  0  0
  7  8  2  0  0  0  0
  7 12  1  0  0  0  0
  8  9  1  0  0  0  0
  9 10  2  0  0  0  0
  9 20  1  0  0  0  0
 10 11  1  0  0  0  0
 10 18  1  0  0  0  0
 11 12  2  0  0  0  0
 13 14  2  0  0  0  0
 14 15  1  0  0  0  0
 15 16  2  0  0  0  0
 17 22  1  0  0  0  0
 18 19  2  0  0  0  0
 19 20  1  0  0  0  0
 20 21  1  0  0  0  0
 22 23  2  0  0  0  0
 22 27  1  0  0  0  0
 23 24  1  0  0  0  0
 23 28  1  0  0  0  0
 24 25  2  0  0  0  0
 25 26  1  0  0  0  0
 26 27  2  0  0  0  0
 28 29  2  0  0  0  0
 28 30  2  0  0  0  0
 28 31  1  0  0  0  0
  2 32  1  0  0  0  0
  4 33  1  0  0  0  0
  6 34  1  0  0  0  0
  8 35  1  0  0  0  0
 11 36  1  0  0  0  0
 12 37  1  0  0  0  0
 14 38  1  0  0  0  0
 15 39  1  0  0  0  0
 18 40  1  0  0  0  0
 19 41  1  0  0  0  0
 21 42  1  0  0  0  0
 21 43  1  0  0  0  0
 21 44  1  0  0  0  0
 24 45  1  0  0  0  0
 25 46  1  0  0  0  0
 27 47  1  0  0  0  0
 31 48  1  0  0  0  0
 31 49  1  0  0  0  0
 31 50  1  0  0  0  0
M  END
> <ID>
35

> <IC50[uM]>
0.037

$$$$
35
  -OEChem-05192314313D
 Structure written by MMmdl.
 50 54  0     0  0  0  0  0  0999 V2000
   91.6086   48.3265  266.6693 C   0  0  0  0  0  0  0  0  0  0  0  0
   91.9732   49.5289  267.2740 C   0  0  0  0  0  0  0  0  0  0  0  0
   93.2849   49.7831  267.6765 C   0  0  0  0  0  0  0  0  0  0  0  0
   94.2756   48.7716  267.5148 C   0  0  0  0  0  0  0  0  0  0  0  0
   93.8941   47.5269  266.9163 C   0  0  0  0  0  0  0  0  0  0  0  0
   92.5664   47.3356  266.4869 C   0  0  0  0  0  0  0  0  0  0  0  0
   93.5944   51.0830  268.3283 C   0  0  0  0  0  0  0  0  0  0  0  0
   92.9019   51.4420  269.4800 C   0  0  0  0  0  0  0  0  0  0  0  0
   93.1886   52.6739  270.0653 C   0  0  0  0  0  0  0  0  0  0  0  0
   94.1369   53.5702  269.4983 C   0  0  0  0  0  0  0  0  0  0  0  0
   94.8396   53.1647  268.3583 C   0  0  0  0  0  0  0  0  0  0  0  0
   94.5632   51.9211  267.7840 C   0  0  0  0  0  0  0  0  0  0  0  0
   94.8011   46.5237  266.7692 N   0  0  0  0  0  0  0  0  0  0  0  0
   96.0655   46.7425  267.1959 C   0  0  0  0  0  0  0  0  0  0  0  0
   96.4524   47.9539  267.7595 C   0  0  0  0  0  0  0  0  0  0  0  0
   95.5606   48.9571  267.9440 N   0  0  0  0  0  0  0  0  0  0  0  0
   90.2742   48.1229  266.3119 N   0  0  0  0  0  0  0  0  0  0  0  0
   94.1551   54.7196  270.3381 C   0  0  0  0  0  0  0  0  0  0  0  0
   93.2925   54.4888  271.3906 C   0  0  0  0  0  0  0  0  0  0  0  0
   92.7216   53.2581  271.2260 N   0  0  0  0  0  0  0  0  0  0  0  0
   91.8085   52.6518  272.1779 C   0  0  0  0  0  0  0  0  0  0  0  0
   89.7147   47.3400  265.2872 C   0  0  0  0  0  0  0  0  0  0  0  0
   88.4272   46.7998  265.4019 C   0  0  0  0  0  0  0  0  0  0  0  0
   87.8901   46.0853  264.3199 C   0  0  0  0  0  0  0  0  0  0  0  0
   88.6593   45.9358  263.1678 C   0  0  0  0  0  0  0  0  0  0  0  0
   89.9101   46.4426  263.0385 N   0  0  0  0  0  0  0  0  0  0  0  0
   90.4183   47.1199  264.0947 C   0  0  0  0  0  0  0  0  0  0  0  0
   87.4704   46.8899  266.9209 S   0  0  0  0  0  0  0  0  0  0  0  0
   86.1418   46.3963  266.6721 O   0  0  0  0  0  0  0  0  0  0  0  0
   87.6670   48.2589  267.4823 O   0  0  0  0  0  0  0  0  0  0  0  0
   88.3758   45.6752  268.0371 C   0  0  0  0  0  0  0  0  0  0  0  0
   91.2190   50.2849  267.4354 H   0  0  0  0  0  0  0  0  0  0  0  0
   92.2889   46.4073  266.0099 H   0  0  0  0  0  0  0  0  0  0  0  0
   92.1615   50.7834  269.9094 H   0  0  0  0  0  0  0  0  0  0  0  0
   95.5907   53.8086  267.9251 H   0  0  0  0  0  0  0  0  0  0  0  0
   95.1084   51.6062  266.9065 H   0  0  0  0  0  0  0  0  0  0  0  0
   96.7963   45.9536  267.0962 H   0  0  0  0  0  0  0  0  0  0  0  0
   96.8671   47.7186  268.7508 H   0  0  0  0  0  0  0  0  0  0  0  0
   97.2477   48.3578  267.1158 H   0  0  0  0  0  0  0  0  0  0  0  0
   94.7401   55.6135  270.1797 H   0  0  0  0  0  0  0  0  0  0  0  0
   93.1006   55.1678  272.2082 H   0  0  0  0  0  0  0  0  0  0  0  0
   91.6174   53.3546  273.0023 H   0  0  0  0  0  0  0  0  0  0  0  0
   90.8606   52.4111  271.6743 H   0  0  0  0  0  0  0  0  0  0  0  0
   92.2554   51.7299  272.5783 H   0  0  0  0  0  0  0  0  0  0  0  0
   86.8994   45.6594  264.3792 H   0  0  0  0  0  0  0  0  0  0  0  0
   88.2384   45.3893  262.3368 H   0  0  0  0  0  0  0  0  0  0  0  0
   91.4212   47.5124  264.0143 H   0  0  0  0  0  0  0  0  0  0  0  0
   87.8789   45.6371  269.0178 H   0  0  0  0  0  0  0  0  0  0  0  0
   88.3603   44.6751  267.5793 H   0  0  0  0  0  0  0  0  0  0  0  0
   89.4178   46.0031  268.1666 H   0  0  0  0  0  0  0  0  0  0  0  0
  1  2  1  0  0  0  0
  1  6  1  0  0  0  0
  1 17  2  0  0  0  0
  2  3  2  0  0  0  0
  3  4  1  0  0  0  0
  3  7  1  0  0  0  0
  4  5  1  0  0  0  0
  4 16  2  0  0  0  0
  5  6  2  0  0  0  0
  5 13  1  0  0  0  0
  7  8  2  0  0  0  0
  7 12  1  0  0  0  0
  8  9  1  0  0  0  0
  9 10  2  0  0  0  0
  9 20  1  0  0  0  0
 10 11  1  0  0  0  0
 10 18  1  0  0  0  0
 11 12  2  0  0  0  0
 13 14  2  0  0  0  0
 14 15  1  0  0  0  0
 15 16  1  0  0  0  0
 17 22  1  0  0  0  0
 18 19  2  0  0  0  0
 19 20  1  0  0  0  0
 20 21  1  0  0  0  0
 22 23  2  0  0  0  0
 22 27  1  0  0  0  0
 23 24  1  0  0  0  0
 23 28  1  0  0  0  0
 24 25  2  0  0  0  0
 25 26  1  0  0  0  0
 26 27  2  0  0  0  0
 28 29  2  0  0  0  0
 28 30  2  0  0  0  0
 28 31  1  0  0  0  0
  2 32  1  0  0  0  0
  6 33  1  0  0  0  0
  8 34  1  0  0  0  0
 11 35  1  0  0  0  0
 12 36  1  0  0  0  0
 14 37  1  0  0  0  0
 15 38  1  0  0  0  0
 15 39  1  0  0  0  0
 18 40  1  0  0  0  0
 19 41  1  0  0  0  0
 21 42  1  0  0  0  0
 21 43  1  0  0  0  0
 21 44  1  0  0  0  0
 24 45  1  0  0  0  0
 25 46  1  0  0  0  0
 27 47  1  0  0  0  0
 31 48  1  0  0  0  0
 31 49  1  0  0  0  0
 31 50  1  0  0  0  0
M  END
> <ID>
35

> <IC50[uM]>
0.037

$$$$
