69
  -OEChem-05192314313D
 Structure written by MMmdl.
 49 53  0     0  0  0  0  0  0999 V2000
   92.5766   47.3309  266.4823 C   0  0  0  0  0  0  0  0  0  0  0  0
   91.6148   48.3287  266.6699 C   0  0  0  0  0  0  0  0  0  0  0  0
   91.9741   49.5270  267.2715 C   0  0  0  0  0  0  0  0  0  0  0  0
   93.2916   49.7960  267.6866 C   0  0  0  0  0  0  0  0  0  0  0  0
   93.9014   47.5331  266.9271 C   0  0  0  0  0  0  0  0  0  0  0  0
   94.2765   48.7751  267.5225 C   0  0  0  0  0  0  0  0  0  0  0  0
   95.5666   48.9639  267.9549 N   0  0  0  0  0  0  0  0  0  0  0  0
   96.4588   47.9530  267.7690 C   0  0  0  0  0  0  0  0  0  0  0  0
   96.0739   46.7411  267.2208 C   0  0  0  0  0  0  0  0  0  0  0  0
   94.8067   46.5203  266.7924 N   0  0  0  0  0  0  0  0  0  0  0  0
   93.6005   51.1028  268.3248 C   0  0  0  0  0  0  0  0  0  0  0  0
   90.2860   48.1138  266.3106 N   0  0  0  0  0  0  0  0  0  0  0  0
   94.5623   51.9414  267.7983 C   0  0  0  0  0  0  0  0  0  0  0  0
   94.8762   53.1779  268.3684 C   0  0  0  0  0  0  0  0  0  0  0  0
   92.9054   51.4651  269.4885 C   0  0  0  0  0  0  0  0  0  0  0  0
   93.1902   52.6828  270.1257 C   0  0  0  0  0  0  0  0  0  0  0  0
   94.1684   53.5476  269.5283 C   0  0  0  0  0  0  0  0  0  0  0  0
   94.3714   55.0131  270.4720 S   0  0  0  0  0  0  0  0  0  0  0  0
   93.2135   54.4474  271.6124 C   0  0  0  0  0  0  0  0  0  0  0  0
   92.6673   53.2239  271.3361 C   0  0  0  0  0  0  0  0  0  0  0  0
   91.6712   52.4815  272.2020 C   0  0  0  0  0  0  0  0  0  0  0  0
   89.7166   47.3368  265.2886 C   0  0  0  0  0  0  0  0  0  0  0  0
   88.4227   46.7955  265.3959 C   0  0  0  0  0  0  0  0  0  0  0  0
   87.8901   46.0818  264.3157 C   0  0  0  0  0  0  0  0  0  0  0  0
   88.6567   45.9315  263.1642 C   0  0  0  0  0  0  0  0  0  0  0  0
   89.9099   46.4368  263.0398 N   0  0  0  0  0  0  0  0  0  0  0  0
   90.4190   47.1179  264.0901 C   0  0  0  0  0  0  0  0  0  0  0  0
   87.4814   46.9006  266.9167 S   0  0  0  0  0  0  0  0  0  0  0  0
   88.3689   45.6582  268.0136 C   0  0  0  0  0  0  0  0  0  0  0  0
   86.1255   46.4116  266.6625 O   0  0  0  0  0  0  0  0  0  0  0  0
   87.6845   48.2469  267.4796 O   0  0  0  0  0  0  0  0  0  0  0  0
   92.3058   46.4049  265.9968 H   0  0  0  0  0  0  0  0  0  0  0  0
   91.2154   50.2798  267.4266 H   0  0  0  0  0  0  0  0  0  0  0  0
   97.4898   48.0993  268.0555 H   0  0  0  0  0  0  0  0  0  0  0  0
   96.8035   45.9497  267.1320 H   0  0  0  0  0  0  0  0  0  0  0  0
   89.6213   48.5974  266.8801 H   0  0  0  0  0  0  0  0  0  0  0  0
   95.0930   51.6296  266.9109 H   0  0  0  0  0  0  0  0  0  0  0  0
   95.6289   53.8220  267.9382 H   0  0  0  0  0  0  0  0  0  0  0  0
   92.1512   50.8069  269.8940 H   0  0  0  0  0  0  0  0  0  0  0  0
   92.9370   55.0189  272.4861 H   0  0  0  0  0  0  0  0  0  0  0  0
   92.2107   51.8563  272.9287 H   0  0  0  0  0  0  0  0  0  0  0  0
   91.0405   53.2057  272.7384 H   0  0  0  0  0  0  0  0  0  0  0  0
   91.0384   51.8432  271.5678 H   0  0  0  0  0  0  0  0  0  0  0  0
   86.8999   45.6546  264.3752 H   0  0  0  0  0  0  0  0  0  0  0  0
   88.2351   45.3879  262.3316 H   0  0  0  0  0  0  0  0  0  0  0  0
   91.4194   47.5156  264.0044 H   0  0  0  0  0  0  0  0  0  0  0  0
   87.8809   45.6238  268.9988 H   0  0  0  0  0  0  0  0  0  0  0  0
   88.3262   44.6623  267.5484 H   0  0  0  0  0  0  0  0  0  0  0  0
   89.4193   45.9613  268.1353 H   0  0  0  0  0  0  0  0  0  0  0  0
  1  2  2  0  0  0  0
  1  5  1  0  0  0  0
  2  3  1  0  0  0  0
  2 12  1  0  0  0  0
  3  4  2  0  0  0  0
  4  6  1  0  0  0  0
  4 11  1  0  0  0  0
  5  6  2  0  0  0  0
  5 10  1  0  0  0  0
  6  7  1  0  0  0  0
  7  8  2  0  0  0  0
  8  9  1  0  0  0  0
  9 10  2  0  0  0  0
 11 13  2  0  0  0  0
 11 15  1  0  0  0  0
 12 22  1  0  0  0  0
 13 14  1  0  0  0  0
 14 17  2  0  0  0  0
 15 16  2  0  0  0  0
 16 17  1  0  0  0  0
 16 20  1  0  0  0  0
 17 18  1  0  0  0  0
 18 19  1  0  0  0  0
 19 20  2  0  0  0  0
 20 21  1  0  0  0  0
 22 23  2  0  0  0  0
 22 27  1  0  0  0  0
 23 24  1  0  0  0  0
 23 28  1  0  0  0  0
 24 25  2  0  0  0  0
 25 26  1  0  0  0  0
 26 27  2  0  0  0  0
 28 29  1  0  0  0  0
 28 30  2  0  0  0  0
 28 31  2  0  0  0  0
  1 32  1  0  0  0  0
  3 33  1  0  0  0  0
  8 34  1  0  0  0  0
  9 35  1  0  0  0  0
 12 36  1  0  0  0  0
 13 37  1  0  0  0  0
 14 38  1  0  0  0  0
 15 39  1  0  0  0  0
 19 40  1  0  0  0  0
 21 41  1  0  0  0  0
 21 42  1  0  0  0  0
 21 43  1  0  0  0  0
 24 44  1  0  0  0  0
 25 45  1  0  0  0  0
 27 46  1  0  0  0  0
 29 47  1  0  0  0  0
 29 48  1  0  0  0  0
 29 49  1  0  0  0  0
M  END
> <ID>
69

> <IC50[uM]>
0.014

$$$$
69
  -OEChem-05192314313D
 Structure written by MMmdl.
 49 53  0     0  0  0  0  0  0999 V2000
   92.5766   47.3309  266.4823 C   0  0  0  0  0  0  0  0  0  0  0  0
   91.6148   48.3287  266.6699 C   0  0  0  0  0  0  0  0  0  0  0  0
   91.9741   49.5270  267.2715 C   0  0  0  0  0  0  0  0  0  0  0  0
   93.2916   49.7960  267.6866 C   0  0  0  0  0  0  0  0  0  0  0  0
   93.9014   47.5331  266.9271 C   0  0  0  0  0  0  0  0  0  0  0  0
   94.2765   48.7751  267.5225 C   0  0  0  0  0  0  0  0  0  0  0  0
   95.5666   48.9639  267.9549 N   0  0  0  0  0  0  0  0  0  0  0  0
   96.4588   47.9530  267.7690 C   0  0  0  0  0  0  0  0  0  0  0  0
   96.0739   46.7411  267.2208 C   0  0  0  0  0  0  0  0  0  0  0  0
   94.8067   46.5203  266.7924 N   0  0  0  0  0  0  0  0  0  0  0  0
   93.6005   51.1028  268.3248 C   0  0  0  0  0  0  0  0  0  0  0  0
   90.2860   48.1138  266.3106 N   0  0  0  0  0  0  0  0  0  0  0  0
   94.5623   51.9414  267.7983 C   0  0  0  0  0  0  0  0  0  0  0  0
   94.8762   53.1779  268.3684 C   0  0  0  0  0  0  0  0  0  0  0  0
   92.9054   51.4651  269.4885 C   0  0  0  0  0  0  0  0  0  0  0  0
   93.1902   52.6828  270.1257 C   0  0  0  0  0  0  0  0  0  0  0  0
   94.1684   53.5476  269.5283 C   0  0  0  0  0  0  0  0  0  0  0  0
   94.3714   55.0131  270.4720 S   0  0  0  0  0  0  0  0  0  0  0  0
   93.2135   54.4474  271.6124 C   0  0  0  0  0  0  0  0  0  0  0  0
   92.6673   53.2239  271.3361 C   0  0  0  0  0  0  0  0  0  0  0  0
   91.6712   52.4815  272.2020 C   0  0  0  0  0  0  0  0  0  0  0  0
   89.7166   47.3368  265.2886 C   0  0  0  0  0  0  0  0  0  0  0  0
   88.4227   46.7955  265.3959 C   0  0  0  0  0  0  0  0  0  0  0  0
   87.8901   46.0818  264.3157 C   0  0  0  0  0  0  0  0  0  0  0  0
   88.6567   45.9315  263.1642 C   0  0  0  0  0  0  0  0  0  0  0  0
   89.9099   46.4368  263.0398 N   0  0  0  0  0  0  0  0  0  0  0  0
   90.4190   47.1179  264.0901 C   0  0  0  0  0  0  0  0  0  0  0  0
   87.4814   46.9006  266.9167 S   0  0  0  0  0  0  0  0  0  0  0  0
   88.3689   45.6582  268.0136 C   0  0  0  0  0  0  0  0  0  0  0  0
   86.1255   46.4116  266.6625 O   0  0  0  0  0  0  0  0  0  0  0  0
   87.6845   48.2469  267.4796 O   0  0  0  0  0  0  0  0  0  0  0  0
   92.3058   46.4049  265.9968 H   0  0  0  0  0  0  0  0  0  0  0  0
   91.2154   50.2798  267.4266 H   0  0  0  0  0  0  0  0  0  0  0  0
   97.4898   48.0993  268.0555 H   0  0  0  0  0  0  0  0  0  0  0  0
   96.8035   45.9497  267.1320 H   0  0  0  0  0  0  0  0  0  0  0  0
   94.5435   45.6433  266.3904 H   0  0  0  0  0  0  0  0  0  0  0  0
   95.0930   51.6296  266.9109 H   0  0  0  0  0  0  0  0  0  0  0  0
   95.6289   53.8220  267.9382 H   0  0  0  0  0  0  0  0  0  0  0  0
   92.1512   50.8069  269.8940 H   0  0  0  0  0  0  0  0  0  0  0  0
   92.9370   55.0189  272.4861 H   0  0  0  0  0  0  0  0  0  0  0  0
   92.2107   51.8563  272.9287 H   0  0  0  0  0  0  0  0  0  0  0  0
   91.0405   53.2057  272.7384 H   0  0  0  0  0  0  0  0  0  0  0  0
   91.0384   51.8432  271.5678 H   0  0  0  0  0  0  0  0  0  0  0  0
   86.8999   45.6546  264.3752 H   0  0  0  0  0  0  0  0  0  0  0  0
   88.2351   45.3879  262.3316 H   0  0  0  0  0  0  0  0  0  0  0  0
   91.4194   47.5156  264.0044 H   0  0  0  0  0  0  0  0  0  0  0  0
   87.8809   45.6238  268.9988 H   0  0  0  0  0  0  0  0  0  0  0  0
   88.3262   44.6623  267.5484 H   0  0  0  0  0  0  0  0  0  0  0  0
   89.4193   45.9613  268.1353 H   0  0  0  0  0  0  0  0  0  0  0  0
  1  2  1  0  0  0  0
  1  5  2  0  0  0  0
  2  3  1  0  0  0  0
  2 12  2  3  0  0  0
  3  4  2  0  0  0  0
  4  6  1  0  0  0  0
  4 11  1  0  0  0  0
  5  6  1  0  0  0  0
  5 10  1  0  0  0  0
  6  7  2  0  0  0  0
  7  8  1  0  0  0  0
  8  9  2  0  0  0  0
  9 10  1  0  0  0  0
 11 13  2  0  0  0  0
 11 15  1  0  0  0  0
 12 22  1  0  0  0  0
 13 14  1  0  0  0  0
 14 17  2  0  0  0  0
 15 16  2  0  0  0  0
 16 17  1  0  0  0  0
 16 20  1  0  0  0  0
 17 18  1  0  0  0  0
 18 19  1  0  0  0  0
 19 20  2  0  0  0  0
 20 21  1  0  0  0  0
 22 23  2  0  0  0  0
 22 27  1  0  0  0  0
 23 24  1  0  0  0  0
 23 28  1  0  0  0  0
 24 25  2  0  0  0  0
 25 26  1  0  0  0  0
 26 27  2  0  0  0  0
 28 29  1  0  0  0  0
 28 30  2  0  0  0  0
 28 31  2  0  0  0  0
  1 32  1  0  0  0  0
  3 33  1  0  0  0  0
  8 34  1  0  0  0  0
  9 35  1  0  0  0  0
 10 36  1  0  0  0  0
 13 37  1  0  0  0  0
 14 38  1  0  0  0  0
 15 39  1  0  0  0  0
 19 40  1  0  0  0  0
 21 41  1  0  0  0  0
 21 42  1  0  0  0  0
 21 43  1  0  0  0  0
 24 44  1  0  0  0  0
 25 45  1  0  0  0  0
 27 46  1  0  0  0  0
 29 47  1  0  0  0  0
 29 48  1  0  0  0  0
 29 49  1  0  0  0  0
M  END
> <ID>
69

> <IC50[uM]>
0.014

$$$$
69
  -OEChem-05192314313D
 Structure written by MMmdl.
 49 53  0     0  0  0  0  0  0999 V2000
   92.5766   47.3309  266.4823 C   0  0  0  0  0  0  0  0  0  0  0  0
   91.6148   48.3287  266.6699 C   0  0  0  0  0  0  0  0  0  0  0  0
   91.9741   49.5270  267.2715 C   0  0  0  0  0  0  0  0  0  0  0  0
   93.2916   49.7960  267.6866 C   0  0  0  0  0  0  0  0  0  0  0  0
   93.9014   47.5331  266.9271 C   0  0  0  0  0  0  0  0  0  0  0  0
   94.2765   48.7751  267.5225 C   0  0  0  0  0  0  0  0  0  0  0  0
   95.5666   48.9639  267.9549 N   0  0  0  0  0  0  0  0  0  0  0  0
   96.4588   47.9530  267.7690 C   0  0  0  0  0  0  0  0  0  0  0  0
   96.0739   46.7411  267.2208 C   0  0  0  0  0  0  0  0  0  0  0  0
   94.8067   46.5203  266.7924 N   0  0  0  0  0  0  0  0  0  0  0  0
   93.6005   51.1028  268.3248 C   0  0  0  0  0  0  0  0  0  0  0  0
   90.2860   48.1138  266.3106 N   0  0  0  0  0  0  0  0  0  0  0  0
   94.5623   51.9414  267.7983 C   0  0  0  0  0  0  0  0  0  0  0  0
   94.8762   53.1779  268.3684 C   0  0  0  0  0  0  0  0  0  0  0  0
   92.9054   51.4651  269.4885 C   0  0  0  0  0  0  0  0  0  0  0  0
   93.1902   52.6828  270.1257 C   0  0  0  0  0  0  0  0  0  0  0  0
   94.1684   53.5476  269.5283 C   0  0  0  0  0  0  0  0  0  0  0  0
   94.3714   55.0131  270.4720 S   0  0  0  0  0  0  0  0  0  0  0  0
   93.2135   54.4474  271.6124 C   0  0  0  0  0  0  0  0  0  0  0  0
   92.6673   53.2239  271.3361 C   0  0  0  0  0  0  0  0  0  0  0  0
   91.6712   52.4815  272.2020 C   0  0  0  0  0  0  0  0  0  0  0  0
   89.7166   47.3368  265.2886 C   0  0  0  0  0  0  0  0  0  0  0  0
   88.4227   46.7955  265.3959 C   0  0  0  0  0  0  0  0  0  0  0  0
   87.8901   46.0818  264.3157 C   0  0  0  0  0  0  0  0  0  0  0  0
   88.6567   45.9315  263.1642 C   0  0  0  0  0  0  0  0  0  0  0  0
   89.9099   46.4368  263.0398 N   0  0  0  0  0  0  0  0  0  0  0  0
   90.4190   47.1179  264.0901 C   0  0  0  0  0  0  0  0  0  0  0  0
   87.4814   46.9006  266.9167 S   0  0  0  0  0  0  0  0  0  0  0  0
   88.3689   45.6582  268.0136 C   0  0  0  0  0  0  0  0  0  0  0  0
   86.1255   46.4116  266.6625 O   0  0  0  0  0  0  0  0  0  0  0  0
   87.6845   48.2469  267.4796 O   0  0  0  0  0  0  0  0  0  0  0  0
   92.2041   46.4310  266.9936 H   0  0  0  0  0  0  0  0  0  0  0  0
   92.6307   47.1418  265.4000 H   0  0  0  0  0  0  0  0  0  0  0  0
   91.2154   50.2798  267.4266 H   0  0  0  0  0  0  0  0  0  0  0  0
   97.4898   48.0993  268.0555 H   0  0  0  0  0  0  0  0  0  0  0  0
   96.8035   45.9497  267.1320 H   0  0  0  0  0  0  0  0  0  0  0  0
   95.0930   51.6296  266.9109 H   0  0  0  0  0  0  0  0  0  0  0  0
   95.6289   53.8220  267.9382 H   0  0  0  0  0  0  0  0  0  0  0  0
   92.1512   50.8069  269.8940 H   0  0  0  0  0  0  0  0  0  0  0  0
   92.9370   55.0189  272.4861 H   0  0  0  0  0  0  0  0  0  0  0  0
   92.2107   51.8563  272.9287 H   0  0  0  0  0  0  0  0  0  0  0  0
   91.0405   53.2057  272.7384 H   0  0  0  0  0  0  0  0  0  0  0  0
   91.0384   51.8432  271.5678 H   0  0  0  0  0  0  0  0  0  0  0  0
   86.8999   45.6546  264.3752 H   0  0  0  0  0  0  0  0  0  0  0  0
   88.2351   45.3879  262.3316 H   0  0  0  0  0  0  0  0  0  0  0  0
   91.4194   47.5156  264.0044 H   0  0  0  0  0  0  0  0  0  0  0  0
   87.8809   45.6238  268.9988 H   0  0  0  0  0  0  0  0  0  0  0  0
   88.3262   44.6623  267.5484 H   0  0  0  0  0  0  0  0  0  0  0  0
   89.4193   45.9613  268.1353 H   0  0  0  0  0  0  0  0  0  0  0  0
  1  2  1  0  0  0  0
  1  5  1  0  0  0  0
  2  3  1  0  0  0  0
  2 12  2  3  0  0  0
  3  4  2  0  0  0  0
  4  6  1  0  0  0  0
  4 11  1  0  0  0  0
  5  6  2  0  0  0  0
  5 10  1  0  0  0  0
  6  7  1  0  0  0  0
  7  8  2  0  0  0  0
  8  9  1  0  0  0  0
  9 10  2  0  0  0  0
 11 13  2  0  0  0  0
 11 15  1  0  0  0  0
 12 22  1  0  0  0  0
 13 14  1  0  0  0  0
 14 17  2  0  0  0  0
 15 16  2  0  0  0  0
 16 17  1  0  0  0  0
 16 20  1  0  0  0  0
 17 18  1  0  0  0  0
 18 19  1  0  0  0  0
 19 20  2  0  0  0  0
 20 21  1  0  0  0  0
 22 23  2  0  0  0  0
 22 27  1  0  0  0  0
 23 24  1  0  0  0  0
 23 28  1  0  0  0  0
 24 25  2  0  0  0  0
 25 26  1  0  0  0  0
 26 27  2  0  0  0  0
 28 29  1  0  0  0  0
 28 30  2  0  0  0  0
 28 31  2  0  0  0  0
  1 32  1  0  0  0  0
  1 33  1  0  0  0  0
  3 34  1  0  0  0  0
  8 35  1  0  0  0  0
  9 36  1  0  0  0  0
 13 37  1  0  0  0  0
 14 38  1  0  0  0  0
 15 39  1  0  0  0  0
 19 40  1  0  0  0  0
 21 41  1  0  0  0  0
 21 42  1  0  0  0  0
 21 43  1  0  0  0  0
 24 44  1  0  0  0  0
 25 45  1  0  0  0  0
 27 46  1  0  0  0  0
 29 47  1  0  0  0  0
 29 48  1  0  0  0  0
 29 49  1  0  0  0  0
M  END
> <ID>
69

> <IC50[uM]>
0.014

$$$$
69
  -OEChem-05192314313D
 Structure written by MMmdl.
 49 53  0     0  0  0  0  0  0999 V2000
   92.5766   47.3309  266.4823 C   0  0  0  0  0  0  0  0  0  0  0  0
   91.6148   48.3287  266.6699 C   0  0  0  0  0  0  0  0  0  0  0  0
   91.9741   49.5270  267.2715 C   0  0  0  0  0  0  0  0  0  0  0  0
   93.2916   49.7960  267.6866 C   0  0  0  0  0  0  0  0  0  0  0  0
   93.9014   47.5331  266.9271 C   0  0  0  0  0  0  0  0  0  0  0  0
   94.2765   48.7751  267.5225 C   0  0  0  0  0  0  0  0  0  0  0  0
   95.5666   48.9639  267.9549 N   0  0  0  0  0  0  0  0  0  0  0  0
   96.4588   47.9530  267.7690 C   0  0  0  0  0  0  0  0  0  0  0  0
   96.0739   46.7411  267.2208 C   0  0  0  0  0  0  0  0  0  0  0  0
   94.8067   46.5203  266.7924 N   0  0  0  0  0  0  0  0  0  0  0  0
   93.6005   51.1028  268.3248 C   0  0  0  0  0  0  0  0  0  0  0  0
   90.2860   48.1138  266.3106 N   0  0  0  0  0  0  0  0  0  0  0  0
   94.5623   51.9414  267.7983 C   0  0  0  0  0  0  0  0  0  0  0  0
   94.8762   53.1779  268.3684 C   0  0  0  0  0  0  0  0  0  0  0  0
   92.9054   51.4651  269.4885 C   0  0  0  0  0  0  0  0  0  0  0  0
   93.1902   52.6828  270.1257 C   0  0  0  0  0  0  0  0  0  0  0  0
   94.1684   53.5476  269.5283 C   0  0  0  0  0  0  0  0  0  0  0  0
   94.3714   55.0131  270.4720 S   0  0  0  0  0  0  0  0  0  0  0  0
   93.2135   54.4474  271.6124 C   0  0  0  0  0  0  0  0  0  0  0  0
   92.6673   53.2239  271.3361 C   0  0  0  0  0  0  0  0  0  0  0  0
   91.6712   52.4815  272.2020 C   0  0  0  0  0  0  0  0  0  0  0  0
   89.7166   47.3368  265.2886 C   0  0  0  0  0  0  0  0  0  0  0  0
   88.4227   46.7955  265.3959 C   0  0  0  0  0  0  0  0  0  0  0  0
   87.8901   46.0818  264.3157 C   0  0  0  0  0  0  0  0  0  0  0  0
   88.6567   45.9315  263.1642 C   0  0  0  0  0  0  0  0  0  0  0  0
   89.9099   46.4368  263.0398 N   0  0  0  0  0  0  0  0  0  0  0  0
   90.4190   47.1179  264.0901 C   0  0  0  0  0  0  0  0  0  0  0  0
   87.4814   46.9006  266.9167 S   0  0  0  0  0  0  0  0  0  0  0  0
   88.3689   45.6582  268.0136 C   0  0  0  0  0  0  0  0  0  0  0  0
   86.1255   46.4116  266.6625 O   0  0  0  0  0  0  0  0  0  0  0  0
   87.6845   48.2469  267.4796 O   0  0  0  0  0  0  0  0  0  0  0  0
   92.3058   46.4049  265.9968 H   0  0  0  0  0  0  0  0  0  0  0  0
   91.7106   50.3199  266.5561 H   0  0  0  0  0  0  0  0  0  0  0  0
   91.3453   49.6195  268.1693 H   0  0  0  0  0  0  0  0  0  0  0  0
   97.4898   48.0993  268.0555 H   0  0  0  0  0  0  0  0  0  0  0  0
   96.8035   45.9497  267.1320 H   0  0  0  0  0  0  0  0  0  0  0  0
   95.0930   51.6296  266.9109 H   0  0  0  0  0  0  0  0  0  0  0  0
   95.6289   53.8220  267.9382 H   0  0  0  0  0  0  0  0  0  0  0  0
   92.1512   50.8069  269.8940 H   0  0  0  0  0  0  0  0  0  0  0  0
   92.9370   55.0189  272.4861 H   0  0  0  0  0  0  0  0  0  0  0  0
   92.2107   51.8563  272.9287 H   0  0  0  0  0  0  0  0  0  0  0  0
   91.0405   53.2057  272.7384 H   0  0  0  0  0  0  0  0  0  0  0  0
   91.0384   51.8432  271.5678 H   0  0  0  0  0  0  0  0  0  0  0  0
   86.8999   45.6546  264.3752 H   0  0  0  0  0  0  0  0  0  0  0  0
   88.2351   45.3879  262.3316 H   0  0  0  0  0  0  0  0  0  0  0  0
   91.4194   47.5156  264.0044 H   0  0  0  0  0  0  0  0  0  0  0  0
   87.8809   45.6238  268.9988 H   0  0  0  0  0  0  0  0  0  0  0  0
   88.3262   44.6623  267.5484 H   0  0  0  0  0  0  0  0  0  0  0  0
   89.4193   45.9613  268.1353 H   0  0  0  0  0  0  0  0  0  0  0  0
  1  2  1  0  0  0  0
  1  5  2  0  0  0  0
  2  3  1  0  0  0  0
  2 12  2  3  0  0  0
  3  4  1  0  0  0  0
  4  6  2  0  0  0  0
  4 11  1  0  0  0  0
  5  6  1  0  0  0  0
  5 10  1  0  0  0  0
  6  7  1  0  0  0  0
  7  8  2  0  0  0  0
  8  9  1  0  0  0  0
  9 10  2  0  0  0  0
 11 13  2  0  0  0  0
 11 15  1  0  0  0  0
 12 22  1  0  0  0  0
 13 14  1  0  0  0  0
 14 17  2  0  0  0  0
 15 16  2  0  0  0  0
 16 17  1  0  0  0  0
 16 20  1  0  0  0  0
 17 18  1  0  0  0  0
 18 19  1  0  0  0  0
 19 20  2  0  0  0  0
 20 21  1  0  0  0  0
 22 23  2  0  0  0  0
 22 27  1  0  0  0  0
 23 24  1  0  0  0  0
 23 28  1  0  0  0  0
 24 25  2  0  0  0  0
 25 26  1  0  0  0  0
 26 27  2  0  0  0  0
 28 29  1  0  0  0  0
 28 30  2  0  0  0  0
 28 31  2  0  0  0  0
  1 32  1  0  0  0  0
  3 33  1  0  0  0  0
  3 34  1  0  0  0  0
  8 35  1  0  0  0  0
  9 36  1  0  0  0  0
 13 37  1  0  0  0  0
 14 38  1  0  0  0  0
 15 39  1  0  0  0  0
 19 40  1  0  0  0  0
 21 41  1  0  0  0  0
 21 42  1  0  0  0  0
 21 43  1  0  0  0  0
 24 44  1  0  0  0  0
 25 45  1  0  0  0  0
 27 46  1  0  0  0  0
 29 47  1  0  0  0  0
 29 48  1  0  0  0  0
 29 49  1  0  0  0  0
M  END
> <ID>
69

> <IC50[uM]>
0.014

$$$$
69
  -OEChem-05192314313D
 Structure written by MMmdl.
 49 53  0     1  0  0  0  0  0999 V2000
   92.5766   47.3309  266.4823 C   0  0  0  0  0  0  0  0  0  0  0  0
   91.6148   48.3287  266.6699 C   0  0  0  0  0  0  0  0  0  0  0  0
   91.9741   49.5270  267.2715 C   0  0  0  0  0  0  0  0  0  0  0  0
   93.2916   49.7960  267.6866 C   0  0  0  0  0  0  0  0  0  0  0  0
   93.9014   47.5331  266.9271 C   0  0  0  0  0  0  0  0  0  0  0  0
   94.2765   48.7751  267.5225 C   0  0  0  0  0  0  0  0  0  0  0  0
   95.5666   48.9639  267.9549 N   0  0  0  0  0  0  0  0  0  0  0  0
   96.4588   47.9530  267.7690 C   0  0  0  0  0  0  0  0  0  0  0  0
   96.0739   46.7411  267.2208 C   0  0  0  0  0  0  0  0  0  0  0  0
   94.8067   46.5203  266.7924 N   0  0  0  0  0  0  0  0  0  0  0  0
   93.6005   51.1028  268.3248 C   0  0  0  0  0  0  0  0  0  0  0  0
   90.2860   48.1138  266.3106 N   0  0  0  0  0  0  0  0  0  0  0  0
   94.5623   51.9414  267.7983 C   0  0  0  0  0  0  0  0  0  0  0  0
   94.8762   53.1779  268.3684 C   0  0  0  0  0  0  0  0  0  0  0  0
   92.9054   51.4651  269.4885 C   0  0  0  0  0  0  0  0  0  0  0  0
   93.1902   52.6828  270.1257 C   0  0  0  0  0  0  0  0  0  0  0  0
   94.1684   53.5476  269.5283 C   0  0  0  0  0  0  0  0  0  0  0  0
   94.3714   55.0131  270.4720 S   0  0  0  0  0  0  0  0  0  0  0  0
   93.2135   54.4474  271.6124 C   0  0  0  0  0  0  0  0  0  0  0  0
   92.6673   53.2239  271.3361 C   0  0  0  0  0  0  0  0  0  0  0  0
   91.6712   52.4815  272.2020 C   0  0  0  0  0  0  0  0  0  0  0  0
   89.7166   47.3368  265.2886 C   0  0  0  0  0  0  0  0  0  0  0  0
   88.4227   46.7955  265.3959 C   0  0  3  0  0  0  0  0  0  0  0  0
   87.8901   46.0818  264.3157 C   0  0  0  0  0  0  0  0  0  0  0  0
   88.6567   45.9315  263.1642 C   0  0  0  0  0  0  0  0  0  0  0  0
   89.9099   46.4368  263.0398 N   0  0  0  0  0  0  0  0  0  0  0  0
   90.4190   47.1179  264.0901 C   0  0  0  0  0  0  0  0  0  0  0  0
   87.4814   46.9006  266.9167 S   0  0  0  0  0  0  0  0  0  0  0  0
   88.3689   45.6582  268.0136 C   0  0  0  0  0  0  0  0  0  0  0  0
   86.1255   46.4116  266.6625 O   0  0  0  0  0  0  0  0  0  0  0  0
   87.6845   48.2469  267.4796 O   0  0  0  0  0  0  0  0  0  0  0  0
   92.3058   46.4049  265.9968 H   0  0  0  0  0  0  0  0  0  0  0  0
   91.2154   50.2798  267.4266 H   0  0  0  0  0  0  0  0  0  0  0  0
   97.4898   48.0993  268.0555 H   0  0  0  0  0  0  0  0  0  0  0  0
   96.8035   45.9497  267.1320 H   0  0  0  0  0  0  0  0  0  0  0  0
   95.0930   51.6296  266.9109 H   0  0  0  0  0  0  0  0  0  0  0  0
   95.6289   53.8220  267.9382 H   0  0  0  0  0  0  0  0  0  0  0  0
   92.1512   50.8069  269.8940 H   0  0  0  0  0  0  0  0  0  0  0  0
   92.9370   55.0189  272.4861 H   0  0  0  0  0  0  0  0  0  0  0  0
   92.2107   51.8563  272.9287 H   0  0  0  0  0  0  0  0  0  0  0  0
   91.0405   53.2057  272.7384 H   0  0  0  0  0  0  0  0  0  0  0  0
   91.0384   51.8432  271.5678 H   0  0  0  0  0  0  0  0  0  0  0  0
   87.9742   47.7312  265.0309 H   0  0  0  0  0  0  0  0  0  0  0  0
   86.8999   45.6546  264.3752 H   0  0  0  0  0  0  0  0  0  0  0  0
   88.2351   45.3879  262.3316 H   0  0  0  0  0  0  0  0  0  0  0  0
   91.4194   47.5156  264.0044 H   0  0  0  0  0  0  0  0  0  0  0  0
   87.8809   45.6238  268.9988 H   0  0  0  0  0  0  0  0  0  0  0  0
   88.3262   44.6623  267.5484 H   0  0  0  0  0  0  0  0  0  0  0  0
   89.4193   45.9613  268.1353 H   0  0  0  0  0  0  0  0  0  0  0  0
  1  2  2  0  0  0  0
  1  5  1  0  0  0  0
  2  3  1  0  0  0  0
  2 12  1  0  0  0  0
  3  4  2  0  0  0  0
  4  6  1  0  0  0  0
  4 11  1  0  0  0  0
  5  6  2  0  0  0  0
  5 10  1  0  0  0  0
  6  7  1  0  0  0  0
  7  8  2  0  0  0  0
  8  9  1  0  0  0  0
  9 10  2  0  0  0  0
 11 13  2  0  0  0  0
 11 15  1  0  0  0  0
 12 22  2  0  0  0  0
 13 14  1  0  0  0  0
 14 17  2  0  0  0  0
 15 16  2  0  0  0  0
 16 17  1  0  0  0  0
 16 20  1  0  0  0  0
 17 18  1  0  0  0  0
 18 19  1  0  0  0  0
 19 20  2  0  0  0  0
 20 21  1  0  0  0  0
 22 23  1  0  0  0  0
 22 27  1  0  0  0  0
 23 24  1  0  0  0  0
 23 28  1  0  0  0  0
 24 25  2  0  0  0  0
 25 26  1  0  0  0  0
 26 27  2  0  0  0  0
 28 29  1  0  0  0  0
 28 30  2  0  0  0  0
 28 31  2  0  0  0  0
  1 32  1  0  0  0  0
  3 33  1  0  0  0  0
  8 34  1  0  0  0  0
  9 35  1  0  0  0  0
 13 36  1  0  0  0  0
 14 37  1  0  0  0  0
 15 38  1  0  0  0  0
 19 39  1  0  0  0  0
 21 40  1  0  0  0  0
 21 41  1  0  0  0  0
 21 42  1  0  0  0  0
 23 43  1  0  0  0  0
 24 44  1  0  0  0  0
 25 45  1  0  0  0  0
 27 46  1  0  0  0  0
 29 47  1  0  0  0  0
 29 48  1  0  0  0  0
 29 49  1  0  0  0  0
M  END
> <ID>
69

> <IC50[uM]>
0.014

$$$$
69
  -OEChem-05192314313D
 Structure written by MMmdl.
 49 53  0     0  0  0  0  0  0999 V2000
   92.5766   47.3309  266.4823 C   0  0  0  0  0  0  0  0  0  0  0  0
   91.6148   48.3287  266.6699 C   0  0  0  0  0  0  0  0  0  0  0  0
   91.9741   49.5270  267.2715 C   0  0  0  0  0  0  0  0  0  0  0  0
   93.2916   49.7960  267.6866 C   0  0  0  0  0  0  0  0  0  0  0  0
   93.9014   47.5331  266.9271 C   0  0  0  0  0  0  0  0  0  0  0  0
   94.2765   48.7751  267.5225 C   0  0  0  0  0  0  0  0  0  0  0  0
   95.5666   48.9639  267.9549 N   0  0  0  0  0  0  0  0  0  0  0  0
   96.4588   47.9530  267.7690 C   0  0  0  0  0  0  0  0  0  0  0  0
   96.0739   46.7411  267.2208 C   0  0  0  0  0  0  0  0  0  0  0  0
   94.8067   46.5203  266.7924 N   0  0  0  0  0  0  0  0  0  0  0  0
   93.6005   51.1028  268.3248 C   0  0  0  0  0  0  0  0  0  0  0  0
   90.2860   48.1138  266.3106 N   0  0  0  0  0  0  0  0  0  0  0  0
   94.5623   51.9414  267.7983 C   0  0  0  0  0  0  0  0  0  0  0  0
   94.8762   53.1779  268.3684 C   0  0  0  0  0  0  0  0  0  0  0  0
   92.9054   51.4651  269.4885 C   0  0  0  0  0  0  0  0  0  0  0  0
   93.1902   52.6828  270.1257 C   0  0  0  0  0  0  0  0  0  0  0  0
   94.1684   53.5476  269.5283 C   0  0  0  0  0  0  0  0  0  0  0  0
   94.3714   55.0131  270.4720 S   0  0  0  0  0  0  0  0  0  0  0  0
   93.2135   54.4474  271.6124 C   0  0  0  0  0  0  0  0  0  0  0  0
   92.6673   53.2239  271.3361 C   0  0  0  0  0  0  0  0  0  0  0  0
   91.6712   52.4815  272.2020 C   0  0  0  0  0  0  0  0  0  0  0  0
   89.7166   47.3368  265.2886 C   0  0  0  0  0  0  0  0  0  0  0  0
   88.4227   46.7955  265.3959 C   0  0  0  0  0  0  0  0  0  0  0  0
   87.8901   46.0818  264.3157 C   0  0  0  0  0  0  0  0  0  0  0  0
   88.6567   45.9315  263.1642 C   0  0  0  0  0  0  0  0  0  0  0  0
   89.9099   46.4368  263.0398 N   0  0  0  0  0  0  0  0  0  0  0  0
   90.4190   47.1179  264.0901 C   0  0  0  0  0  0  0  0  0  0  0  0
   87.4814   46.9006  266.9167 S   0  0  0  0  0  0  0  0  0  0  0  0
   88.3689   45.6582  268.0136 C   0  0  0  0  0  0  0  0  0  0  0  0
   86.1255   46.4116  266.6625 O   0  0  0  0  0  0  0  0  0  0  0  0
   87.6845   48.2469  267.4796 O   0  0  0  0  0  0  0  0  0  0  0  0
   92.3058   46.4049  265.9968 H   0  0  0  0  0  0  0  0  0  0  0  0
   91.2154   50.2798  267.4266 H   0  0  0  0  0  0  0  0  0  0  0  0
   97.4898   48.0993  268.0555 H   0  0  0  0  0  0  0  0  0  0  0  0
   96.8035   45.9497  267.1320 H   0  0  0  0  0  0  0  0  0  0  0  0
   95.0930   51.6296  266.9109 H   0  0  0  0  0  0  0  0  0  0  0  0
   95.6289   53.8220  267.9382 H   0  0  0  0  0  0  0  0  0  0  0  0
   92.1512   50.8069  269.8940 H   0  0  0  0  0  0  0  0  0  0  0  0
   92.9370   55.0189  272.4861 H   0  0  0  0  0  0  0  0  0  0  0  0
   92.2107   51.8563  272.9287 H   0  0  0  0  0  0  0  0  0  0  0  0
   91.0405   53.2057  272.7384 H   0  0  0  0  0  0  0  0  0  0  0  0
   91.0384   51.8432  271.5678 H   0  0  0  0  0  0  0  0  0  0  0  0
   86.8999   45.6546  264.3752 H   0  0  0  0  0  0  0  0  0  0  0  0
   88.7494   44.8476  263.0011 H   0  0  0  0  0  0  0  0  0  0  0  0
   88.0682   46.3761  262.3481 H   0  0  0  0  0  0  0  0  0  0  0  0
   91.4194   47.5156  264.0044 H   0  0  0  0  0  0  0  0  0  0  0  0
   87.8809   45.6238  268.9988 H   0  0  0  0  0  0  0  0  0  0  0  0
   88.3262   44.6623  267.5484 H   0  0  0  0  0  0  0  0  0  0  0  0
   89.4193   45.9613  268.1353 H   0  0  0  0  0  0  0  0  0  0  0  0
  1  2  2  0  0  0  0
  1  5  1  0  0  0  0
  2  3  1  0  0  0  0
  2 12  1  0  0  0  0
  3  4  2  0  0  0  0
  4  6  1  0  0  0  0
  4 11  1  0  0  0  0
  5  6  2  0  0  0  0
  5 10  1  0  0  0  0
  6  7  1  0  0  0  0
  7  8  2  0  0  0  0
  8  9  1  0  0  0  0
  9 10  2  0  0  0  0
 11 13  2  0  0  0  0
 11 15  1  0  0  0  0
 12 22  2  0  0  0  0
 13 14  1  0  0  0  0
 14 17  2  0  0  0  0
 15 16  2  0  0  0  0
 16 17  1  0  0  0  0
 16 20  1  0  0  0  0
 17 18  1  0  0  0  0
 18 19  1  0  0  0  0
 19 20  2  0  0  0  0
 20 21  1  0  0  0  0
 22 23  1  0  0  0  0
 22 27  1  0  0  0  0
 23 24  2  0  0  0  0
 23 28  1  0  0  0  0
 24 25  1  0  0  0  0
 25 26  1  0  0  0  0
 26 27  2  0  0  0  0
 28 29  1  0  0  0  0
 28 30  2  0  0  0  0
 28 31  2  0  0  0  0
  1 32  1  0  0  0  0
  3 33  1  0  0  0  0
  8 34  1  0  0  0  0
  9 35  1  0  0  0  0
 13 36  1  0  0  0  0
 14 37  1  0  0  0  0
 15 38  1  0  0  0  0
 19 39  1  0  0  0  0
 21 40  1  0  0  0  0
 21 41  1  0  0  0  0
 21 42  1  0  0  0  0
 24 43  1  0  0  0  0
 25 44  1  0  0  0  0
 25 45  1  0  0  0  0
 27 46  1  0  0  0  0
 29 47  1  0  0  0  0
 29 48  1  0  0  0  0
 29 49  1  0  0  0  0
M  END
> <ID>
69

> <IC50[uM]>
0.014

$$$$
69
  -OEChem-05192314313D
 Structure written by MMmdl.
 49 53  0     0  0  0  0  0  0999 V2000
   92.5766   47.3309  266.4823 C   0  0  0  0  0  0  0  0  0  0  0  0
   91.6148   48.3287  266.6699 C   0  0  0  0  0  0  0  0  0  0  0  0
   91.9741   49.5270  267.2715 C   0  0  0  0  0  0  0  0  0  0  0  0
   93.2916   49.7960  267.6866 C   0  0  0  0  0  0  0  0  0  0  0  0
   93.9014   47.5331  266.9271 C   0  0  0  0  0  0  0  0  0  0  0  0
   94.2765   48.7751  267.5225 C   0  0  0  0  0  0  0  0  0  0  0  0
   95.5666   48.9639  267.9549 N   0  0  0  0  0  0  0  0  0  0  0  0
   96.4588   47.9530  267.7690 C   0  0  0  0  0  0  0  0  0  0  0  0
   96.0739   46.7411  267.2208 C   0  0  0  0  0  0  0  0  0  0  0  0
   94.8067   46.5203  266.7924 N   0  0  0  0  0  0  0  0  0  0  0  0
   93.6005   51.1028  268.3248 C   0  0  0  0  0  0  0  0  0  0  0  0
   90.2860   48.1138  266.3106 N   0  0  0  0  0  0  0  0  0  0  0  0
   94.5623   51.9414  267.7983 C   0  0  0  0  0  0  0  0  0  0  0  0
   94.8762   53.1779  268.3684 C   0  0  0  0  0  0  0  0  0  0  0  0
   92.9054   51.4651  269.4885 C   0  0  0  0  0  0  0  0  0  0  0  0
   93.1902   52.6828  270.1257 C   0  0  0  0  0  0  0  0  0  0  0  0
   94.1684   53.5476  269.5283 C   0  0  0  0  0  0  0  0  0  0  0  0
   94.3714   55.0131  270.4720 S   0  0  0  0  0  0  0  0  0  0  0  0
   93.2135   54.4474  271.6124 C   0  0  0  0  0  0  0  0  0  0  0  0
   92.6673   53.2239  271.3361 C   0  0  0  0  0  0  0  0  0  0  0  0
   91.6712   52.4815  272.2020 C   0  0  0  0  0  0  0  0  0  0  0  0
   89.7166   47.3368  265.2886 C   0  0  0  0  0  0  0  0  0  0  0  0
   88.4227   46.7955  265.3959 C   0  0  0  0  0  0  0  0  0  0  0  0
   87.8901   46.0818  264.3157 C   0  0  0  0  0  0  0  0  0  0  0  0
   88.6567   45.9315  263.1642 C   0  0  0  0  0  0  0  0  0  0  0  0
   89.9099   46.4368  263.0398 N   0  0  0  0  0  0  0  0  0  0  0  0
   90.4190   47.1179  264.0901 C   0  0  0  0  0  0  0  0  0  0  0  0
   87.4814   46.9006  266.9167 S   0  0  0  0  0  0  0  0  0  0  0  0
   88.3689   45.6582  268.0136 C   0  0  0  0  0  0  0  0  0  0  0  0
   86.1255   46.4116  266.6625 O   0  0  0  0  0  0  0  0  0  0  0  0
   87.6845   48.2469  267.4796 O   0  0  0  0  0  0  0  0  0  0  0  0
   92.3058   46.4049  265.9968 H   0  0  0  0  0  0  0  0  0  0  0  0
   91.2154   50.2798  267.4266 H   0  0  0  0  0  0  0  0  0  0  0  0
   97.4898   48.0993  268.0555 H   0  0  0  0  0  0  0  0  0  0  0  0
   96.8035   45.9497  267.1320 H   0  0  0  0  0  0  0  0  0  0  0  0
   95.0930   51.6296  266.9109 H   0  0  0  0  0  0  0  0  0  0  0  0
   95.6289   53.8220  267.9382 H   0  0  0  0  0  0  0  0  0  0  0  0
   92.1512   50.8069  269.8940 H   0  0  0  0  0  0  0  0  0  0  0  0
   92.9370   55.0189  272.4861 H   0  0  0  0  0  0  0  0  0  0  0  0
   92.2107   51.8563  272.9287 H   0  0  0  0  0  0  0  0  0  0  0  0
   91.0405   53.2057  272.7384 H   0  0  0  0  0  0  0  0  0  0  0  0
   91.0384   51.8432  271.5678 H   0  0  0  0  0  0  0  0  0  0  0  0
   86.8999   45.6546  264.3752 H   0  0  0  0  0  0  0  0  0  0  0  0
   88.2351   45.3879  262.3316 H   0  0  0  0  0  0  0  0  0  0  0  0
   90.6748   48.1161  263.7052 H   0  0  0  0  0  0  0  0  0  0  0  0
   91.3398   46.5875  264.3742 H   0  0  0  0  0  0  0  0  0  0  0  0
   87.8809   45.6238  268.9988 H   0  0  0  0  0  0  0  0  0  0  0  0
   88.3262   44.6623  267.5484 H   0  0  0  0  0  0  0  0  0  0  0  0
   89.4193   45.9613  268.1353 H   0  0  0  0  0  0  0  0  0  0  0  0
  1  2  2  0  0  0  0
  1  5  1  0  0  0  0
  2  3  1  0  0  0  0
  2 12  1  0  0  0  0
  3  4  2  0  0  0  0
  4  6  1  0  0  0  0
  4 11  1  0  0  0  0
  5  6  2  0  0  0  0
  5 10  1  0  0  0  0
  6  7  1  0  0  0  0
  7  8  2  0  0  0  0
  8  9  1  0  0  0  0
  9 10  2  0  0  0  0
 11 13  2  0  0  0  0
 11 15  1  0  0  0  0
 12 22  2  0  0  0  0
 13 14  1  0  0  0  0
 14 17  2  0  0  0  0
 15 16  2  0  0  0  0
 16 17  1  0  0  0  0
 16 20  1  0  0  0  0
 17 18  1  0  0  0  0
 18 19  1  0  0  0  0
 19 20  2  0  0  0  0
 20 21  1  0  0  0  0
 22 23  1  0  0  0  0
 22 27  1  0  0  0  0
 23 24  2  0  0  0  0
 23 28  1  0  0  0  0
 24 25  1  0  0  0  0
 25 26  2  0  0  0  0
 26 27  1  0  0  0  0
 28 29  1  0  0  0  0
 28 30  2  0  0  0  0
 28 31  2  0  0  0  0
  1 32  1  0  0  0  0
  3 33  1  0  0  0  0
  8 34  1  0  0  0  0
  9 35  1  0  0  0  0
 13 36  1  0  0  0  0
 14 37  1  0  0  0  0
 15 38  1  0  0  0  0
 19 39  1  0  0  0  0
 21 40  1  0  0  0  0
 21 41  1  0  0  0  0
 21 42  1  0  0  0  0
 24 43  1  0  0  0  0
 25 44  1  0  0  0  0
 27 45  1  0  0  0  0
 27 46  1  0  0  0  0
 29 47  1  0  0  0  0
 29 48  1  0  0  0  0
 29 49  1  0  0  0  0
M  END
> <ID>
69

> <IC50[uM]>
0.014

$$$$
69
  -OEChem-05192314313D
 Structure written by MMmdl.
 49 53  0     1  0  0  0  0  0999 V2000
   92.5766   47.3309  266.4823 C   0  0  0  0  0  0  0  0  0  0  0  0
   91.6148   48.3287  266.6699 C   0  0  0  0  0  0  0  0  0  0  0  0
   91.9741   49.5270  267.2715 C   0  0  0  0  0  0  0  0  0  0  0  0
   93.2916   49.7960  267.6866 C   0  0  0  0  0  0  0  0  0  0  0  0
   93.9014   47.5331  266.9271 C   0  0  0  0  0  0  0  0  0  0  0  0
   94.2765   48.7751  267.5225 C   0  0  3  0  0  0  0  0  0  0  0  0
   95.5666   48.9639  267.9549 N   0  0  0  0  0  0  0  0  0  0  0  0
   96.4588   47.9530  267.7690 C   0  0  0  0  0  0  0  0  0  0  0  0
   96.0739   46.7411  267.2208 C   0  0  0  0  0  0  0  0  0  0  0  0
   94.8067   46.5203  266.7924 N   0  0  0  0  0  0  0  0  0  0  0  0
   93.6005   51.1028  268.3248 C   0  0  0  0  0  0  0  0  0  0  0  0
   90.2860   48.1138  266.3106 N   0  0  0  0  0  0  0  0  0  0  0  0
   94.5623   51.9414  267.7983 C   0  0  0  0  0  0  0  0  0  0  0  0
   94.8762   53.1779  268.3684 C   0  0  0  0  0  0  0  0  0  0  0  0
   92.9054   51.4651  269.4885 C   0  0  0  0  0  0  0  0  0  0  0  0
   93.1902   52.6828  270.1257 C   0  0  0  0  0  0  0  0  0  0  0  0
   94.1684   53.5476  269.5283 C   0  0  0  0  0  0  0  0  0  0  0  0
   94.3714   55.0131  270.4720 S   0  0  0  0  0  0  0  0  0  0  0  0
   93.2135   54.4474  271.6124 C   0  0  0  0  0  0  0  0  0  0  0  0
   92.6673   53.2239  271.3361 C   0  0  0  0  0  0  0  0  0  0  0  0
   91.6712   52.4815  272.2020 C   0  0  0  0  0  0  0  0  0  0  0  0
   89.7166   47.3368  265.2886 C   0  0  0  0  0  0  0  0  0  0  0  0
   88.4227   46.7955  265.3959 C   0  0  0  0  0  0  0  0  0  0  0  0
   87.8901   46.0818  264.3157 C   0  0  0  0  0  0  0  0  0  0  0  0
   88.6567   45.9315  263.1642 C   0  0  0  0  0  0  0  0  0  0  0  0
   89.9099   46.4368  263.0398 N   0  0  0  0  0  0  0  0  0  0  0  0
   90.4190   47.1179  264.0901 C   0  0  0  0  0  0  0  0  0  0  0  0
   87.4814   46.9006  266.9167 S   0  0  0  0  0  0  0  0  0  0  0  0
   88.3689   45.6582  268.0136 C   0  0  0  0  0  0  0  0  0  0  0  0
   86.1255   46.4116  266.6625 O   0  0  0  0  0  0  0  0  0  0  0  0
   87.6845   48.2469  267.4796 O   0  0  0  0  0  0  0  0  0  0  0  0
   92.3058   46.4049  265.9968 H   0  0  0  0  0  0  0  0  0  0  0  0
   91.2154   50.2798  267.4266 H   0  0  0  0  0  0  0  0  0  0  0  0
   94.5405   49.1782  266.5336 H   0  0  0  0  0  0  0  0  0  0  0  0
   97.4898   48.0993  268.0555 H   0  0  0  0  0  0  0  0  0  0  0  0
   96.8035   45.9497  267.1320 H   0  0  0  0  0  0  0  0  0  0  0  0
   95.0930   51.6296  266.9109 H   0  0  0  0  0  0  0  0  0  0  0  0
   95.6289   53.8220  267.9382 H   0  0  0  0  0  0  0  0  0  0  0  0
   92.1512   50.8069  269.8940 H   0  0  0  0  0  0  0  0  0  0  0  0
   92.9370   55.0189  272.4861 H   0  0  0  0  0  0  0  0  0  0  0  0
   92.2107   51.8563  272.9287 H   0  0  0  0  0  0  0  0  0  0  0  0
   91.0405   53.2057  272.7384 H   0  0  0  0  0  0  0  0  0  0  0  0
   91.0384   51.8432  271.5678 H   0  0  0  0  0  0  0  0  0  0  0  0
   86.8999   45.6546  264.3752 H   0  0  0  0  0  0  0  0  0  0  0  0
   88.2351   45.3879  262.3316 H   0  0  0  0  0  0  0  0  0  0  0  0
   91.4194   47.5156  264.0044 H   0  0  0  0  0  0  0  0  0  0  0  0
   87.8809   45.6238  268.9988 H   0  0  0  0  0  0  0  0  0  0  0  0
   88.3262   44.6623  267.5484 H   0  0  0  0  0  0  0  0  0  0  0  0
   89.4193   45.9613  268.1353 H   0  0  0  0  0  0  0  0  0  0  0  0
  1  2  1  0  0  0  0
  1  5  2  0  0  0  0
  2  3  1  0  0  0  0
  2 12  2  3  0  0  0
  3  4  2  0  0  0  0
  4  6  1  0  0  0  0
  4 11  1  0  0  0  0
  5  6  1  0  0  0  0
  5 10  1  0  0  0  0
  6  7  1  0  0  0  0
  7  8  2  0  0  0  0
  8  9  1  0  0  0  0
  9 10  2  0  0  0  0
 11 13  2  0  0  0  0
 11 15  1  0  0  0  0
 12 22  1  0  0  0  0
 13 14  1  0  0  0  0
 14 17  2  0  0  0  0
 15 16  2  0  0  0  0
 16 17  1  0  0  0  0
 16 20  1  0  0  0  0
 17 18  1  0  0  0  0
 18 19  1  0  0  0  0
 19 20  2  0  0  0  0
 20 21  1  0  0  0  0
 22 23  2  0  0  0  0
 22 27  1  0  0  0  0
 23 24  1  0  0  0  0
 23 28  1  0  0  0  0
 24 25  2  0  0  0  0
 25 26  1  0  0  0  0
 26 27  2  0  0  0  0
 28 29  1  0  0  0  0
 28 30  2  0  0  0  0
 28 31  2  0  0  0  0
  1 32  1  0  0  0  0
  3 33  1  0  0  0  0
  6 34  1  0  0  0  0
  8 35  1  0  0  0  0
  9 36  1  0  0  0  0
 13 37  1  0  0  0  0
 14 38  1  0  0  0  0
 15 39  1  0  0  0  0
 19 40  1  0  0  0  0
 21 41  1  0  0  0  0
 21 42  1  0  0  0  0
 21 43  1  0  0  0  0
 24 44  1  0  0  0  0
 25 45  1  0  0  0  0
 27 46  1  0  0  0  0
 29 47  1  0  0  0  0
 29 48  1  0  0  0  0
 29 49  1  0  0  0  0
M  END
> <ID>
69

> <IC50[uM]>
0.014

$$$$
69
  -OEChem-05192314313D
 Structure written by MMmdl.
 49 53  0     0  0  0  0  0  0999 V2000
   92.5766   47.3309  266.4823 C   0  0  0  0  0  0  0  0  0  0  0  0
   91.6148   48.3287  266.6699 C   0  0  0  0  0  0  0  0  0  0  0  0
   91.9741   49.5270  267.2715 C   0  0  0  0  0  0  0  0  0  0  0  0
   93.2916   49.7960  267.6866 C   0  0  0  0  0  0  0  0  0  0  0  0
   93.9014   47.5331  266.9271 C   0  0  0  0  0  0  0  0  0  0  0  0
   94.2765   48.7751  267.5225 C   0  0  0  0  0  0  0  0  0  0  0  0
   95.5666   48.9639  267.9549 N   0  0  0  0  0  0  0  0  0  0  0  0
   96.4588   47.9530  267.7690 C   0  0  0  0  0  0  0  0  0  0  0  0
   96.0739   46.7411  267.2208 C   0  0  0  0  0  0  0  0  0  0  0  0
   94.8067   46.5203  266.7924 N   0  0  0  0  0  0  0  0  0  0  0  0
   93.6005   51.1028  268.3248 C   0  0  0  0  0  0  0  0  0  0  0  0
   90.2860   48.1138  266.3106 N   0  0  0  0  0  0  0  0  0  0  0  0
   94.5623   51.9414  267.7983 C   0  0  0  0  0  0  0  0  0  0  0  0
   94.8762   53.1779  268.3684 C   0  0  0  0  0  0  0  0  0  0  0  0
   92.9054   51.4651  269.4885 C   0  0  0  0  0  0  0  0  0  0  0  0
   93.1902   52.6828  270.1257 C   0  0  0  0  0  0  0  0  0  0  0  0
   94.1684   53.5476  269.5283 C   0  0  0  0  0  0  0  0  0  0  0  0
   94.3714   55.0131  270.4720 S   0  0  0  0  0  0  0  0  0  0  0  0
   93.2135   54.4474  271.6124 C   0  0  0  0  0  0  0  0  0  0  0  0
   92.6673   53.2239  271.3361 C   0  0  0  0  0  0  0  0  0  0  0  0
   91.6712   52.4815  272.2020 C   0  0  0  0  0  0  0  0  0  0  0  0
   89.7166   47.3368  265.2886 C   0  0  0  0  0  0  0  0  0  0  0  0
   88.4227   46.7955  265.3959 C   0  0  0  0  0  0  0  0  0  0  0  0
   87.8901   46.0818  264.3157 C   0  0  0  0  0  0  0  0  0  0  0  0
   88.6567   45.9315  263.1642 C   0  0  0  0  0  0  0  0  0  0  0  0
   89.9099   46.4368  263.0398 N   0  0  0  0  0  0  0  0  0  0  0  0
   90.4190   47.1179  264.0901 C   0  0  0  0  0  0  0  0  0  0  0  0
   87.4814   46.9006  266.9167 S   0  0  0  0  0  0  0  0  0  0  0  0
   88.3689   45.6582  268.0136 C   0  0  0  0  0  0  0  0  0  0  0  0
   86.1255   46.4116  266.6625 O   0  0  0  0  0  0  0  0  0  0  0  0
   87.6845   48.2469  267.4796 O   0  0  0  0  0  0  0  0  0  0  0  0
   92.3058   46.4049  265.9968 H   0  0  0  0  0  0  0  0  0  0  0  0
   91.2154   50.2798  267.4266 H   0  0  0  0  0  0  0  0  0  0  0  0
   97.2488   48.3523  267.1160 H   0  0  0  0  0  0  0  0  0  0  0  0
   96.8813   47.7258  268.7589 H   0  0  0  0  0  0  0  0  0  0  0  0
   96.8035   45.9497  267.1320 H   0  0  0  0  0  0  0  0  0  0  0  0
   95.0930   51.6296  266.9109 H   0  0  0  0  0  0  0  0  0  0  0  0
   95.6289   53.8220  267.9382 H   0  0  0  0  0  0  0  0  0  0  0  0
   92.1512   50.8069  269.8940 H   0  0  0  0  0  0  0  0  0  0  0  0
   92.9370   55.0189  272.4861 H   0  0  0  0  0  0  0  0  0  0  0  0
   92.2107   51.8563  272.9287 H   0  0  0  0  0  0  0  0  0  0  0  0
   91.0405   53.2057  272.7384 H   0  0  0  0  0  0  0  0  0  0  0  0
   91.0384   51.8432  271.5678 H   0  0  0  0  0  0  0  0  0  0  0  0
   86.8999   45.6546  264.3752 H   0  0  0  0  0  0  0  0  0  0  0  0
   88.2351   45.3879  262.3316 H   0  0  0  0  0  0  0  0  0  0  0  0
   91.4194   47.5156  264.0044 H   0  0  0  0  0  0  0  0  0  0  0  0
   87.8809   45.6238  268.9988 H   0  0  0  0  0  0  0  0  0  0  0  0
   88.3262   44.6623  267.5484 H   0  0  0  0  0  0  0  0  0  0  0  0
   89.4193   45.9613  268.1353 H   0  0  0  0  0  0  0  0  0  0  0  0
  1  2  1  0  0  0  0
  1  5  2  0  0  0  0
  2  3  1  0  0  0  0
  2 12  2  3  0  0  0
  3  4  2  0  0  0  0
  4  6  1  0  0  0  0
  4 11  1  0  0  0  0
  5  6  1  0  0  0  0
  5 10  1  0  0  0  0
  6  7  2  0  0  0  0
  7  8  1  0  0  0  0
  8  9  1  0  0  0  0
  9 10  2  0  0  0  0
 11 13  2  0  0  0  0
 11 15  1  0  0  0  0
 12 22  1  0  0  0  0
 13 14  1  0  0  0  0
 14 17  2  0  0  0  0
 15 16  2  0  0  0  0
 16 17  1  0  0  0  0
 16 20  1  0  0  0  0
 17 18  1  0  0  0  0
 18 19  1  0  0  0  0
 19 20  2  0  0  0  0
 20 21  1  0  0  0  0
 22 23  2  0  0  0  0
 22 27  1  0  0  0  0
 23 24  1  0  0  0  0
 23 28  1  0  0  0  0
 24 25  2  0  0  0  0
 25 26  1  0  0  0  0
 26 27  2  0  0  0  0
 28 29  1  0  0  0  0
 28 30  2  0  0  0  0
 28 31  2  0  0  0  0
  1 32  1  0  0  0  0
  3 33  1  0  0  0  0
  8 34  1  0  0  0  0
  8 35  1  0  0  0  0
  9 36  1  0  0  0  0
 13 37  1  0  0  0  0
 14 38  1  0  0  0  0
 15 39  1  0  0  0  0
 19 40  1  0  0  0  0
 21 41  1  0  0  0  0
 21 42  1  0  0  0  0
 21 43  1  0  0  0  0
 24 44  1  0  0  0  0
 25 45  1  0  0  0  0
 27 46  1  0  0  0  0
 29 47  1  0  0  0  0
 29 48  1  0  0  0  0
 29 49  1  0  0  0  0
M  END
> <ID>
69

> <IC50[uM]>
0.014

$$$$
