58
  -OEChem-05192314313D
 Structure written by MMmdl.
 48 52  0     0  0  0  0  0  0999 V2000
   94.8013   46.5214  266.7826 N   0  0  0  0  0  0  0  0  0  0  0  0
   95.5604   48.9616  267.9505 N   0  0  0  0  0  0  0  0  0  0  0  0
   96.4513   47.9564  267.7616 C   0  0  0  0  0  0  0  0  0  0  0  0
   96.0690   46.7404  267.2068 C   0  0  0  0  0  0  0  0  0  0  0  0
   94.2685   48.7751  267.5275 C   0  0  0  0  0  0  0  0  0  0  0  0
   93.8968   47.5294  266.9259 C   0  0  0  0  0  0  0  0  0  0  0  0
   92.5695   47.3323  266.4865 C   0  0  0  0  0  0  0  0  0  0  0  0
   91.6129   48.3253  266.6755 C   0  0  0  0  0  0  0  0  0  0  0  0
   91.9685   49.5269  267.2835 C   0  0  0  0  0  0  0  0  0  0  0  0
   93.2847   49.7945  267.6974 C   0  0  0  0  0  0  0  0  0  0  0  0
   93.5894   51.1028  268.3276 C   0  0  0  0  0  0  0  0  0  0  0  0
   90.2782   48.1195  266.3117 N   0  0  0  0  0  0  0  0  0  0  0  0
   94.5708   51.9469  267.7831 C   0  0  0  0  0  0  0  0  0  0  0  0
   94.8595   53.1857  268.3749 C   0  0  0  0  0  0  0  0  0  0  0  0
   92.9123   51.4978  269.4953 C   0  0  0  0  0  0  0  0  0  0  0  0
   93.2007   52.7289  270.0653 C   0  0  0  0  0  0  0  0  0  0  0  0
   94.1307   53.5569  269.5027 C   0  0  0  0  0  0  0  0  0  0  0  0
   94.3320   54.7281  270.1938 O   0  0  0  0  0  0  0  0  0  0  0  0
   93.3593   54.7303  271.2476 C   0  0  0  0  0  0  0  0  0  0  0  0
   92.7695   53.3637  271.3461 C   0  0  0  0  0  0  0  0  0  0  0  0
   89.7154   47.3416  265.2852 C   0  0  0  0  0  0  0  0  0  0  0  0
   90.4167   47.1271  264.0903 C   0  0  0  0  0  0  0  0  0  0  0  0
   89.9109   46.4408  263.0386 N   0  0  0  0  0  0  0  0  0  0  0  0
   88.6582   45.9328  263.1640 C   0  0  0  0  0  0  0  0  0  0  0  0
   87.8902   46.0836  264.3159 C   0  0  0  0  0  0  0  0  0  0  0  0
   88.4237   46.7992  265.3955 C   0  0  0  0  0  0  0  0  0  0  0  0
   87.4810   46.9013  266.9181 S   0  0  0  0  0  0  0  0  0  0  0  0
   86.1283   46.4027  266.6622 O   0  0  0  0  0  0  0  0  0  0  0  0
   87.6749   48.2444  267.4795 O   0  0  0  0  0  0  0  0  0  0  0  0
   88.3720   45.6610  268.0177 C   0  0  0  0  0  0  0  0  0  0  0  0
   97.4818   48.1042  268.0490 H   0  0  0  0  0  0  0  0  0  0  0  0
   96.8003   45.9514  267.1117 H   0  0  0  0  0  0  0  0  0  0  0  0
   92.2954   46.4070  266.0017 H   0  0  0  0  0  0  0  0  0  0  0  0
   91.2082   50.2773  267.4420 H   0  0  0  0  0  0  0  0  0  0  0  0
   89.6128   48.6076  266.8766 H   0  0  0  0  0  0  0  0  0  0  0  0
   95.1093   51.6390  266.8990 H   0  0  0  0  0  0  0  0  0  0  0  0
   95.6235   53.8319  267.9686 H   0  0  0  0  0  0  0  0  0  0  0  0
   92.1748   50.8487  269.9438 H   0  0  0  0  0  0  0  0  0  0  0  0
   93.8430   54.9958  272.1992 H   0  0  0  0  0  0  0  0  0  0  0  0
   92.5686   55.4609  271.0219 H   0  0  0  0  0  0  0  0  0  0  0  0
   91.6727   53.4089  271.4172 H   0  0  0  0  0  0  0  0  0  0  0  0
   93.1711   52.8196  272.2137 H   0  0  0  0  0  0  0  0  0  0  0  0
   91.4145   47.5313  264.0042 H   0  0  0  0  0  0  0  0  0  0  0  0
   88.2380   45.3867  262.3324 H   0  0  0  0  0  0  0  0  0  0  0  0
   86.9002   45.6561  264.3758 H   0  0  0  0  0  0  0  0  0  0  0  0
   87.8832   45.6259  269.0025 H   0  0  0  0  0  0  0  0  0  0  0  0
   88.3325   44.6647  267.5532 H   0  0  0  0  0  0  0  0  0  0  0  0
   89.4214   45.9672  268.1400 H   0  0  0  0  0  0  0  0  0  0  0  0
  1  4  2  0  0  0  0
  1  6  1  0  0  0  0
  2  3  2  0  0  0  0
  2  5  1  0  0  0  0
  3  4  1  0  0  0  0
  5  6  2  0  0  0  0
  5 10  1  0  0  0  0
  6  7  1  0  0  0  0
  7  8  2  0  0  0  0
  8  9  1  0  0  0  0
  8 12  1  0  0  0  0
  9 10  2  0  0  0  0
 10 11  1  0  0  0  0
 11 13  2  0  0  0  0
 11 15  1  0  0  0  0
 12 21  1  0  0  0  0
 13 14  1  0  0  0  0
 14 17  2  0  0  0  0
 15 16  2  0  0  0  0
 16 17  1  0  0  0  0
 16 20  1  0  0  0  0
 17 18  1  0  0  0  0
 18 19  1  0  0  0  0
 19 20  1  0  0  0  0
 21 22  2  0  0  0  0
 21 26  1  0  0  0  0
 22 23  1  0  0  0  0
 23 24  2  0  0  0  0
 24 25  1  0  0  0  0
 25 26  2  0  0  0  0
 26 27  1  0  0  0  0
 27 28  2  0  0  0  0
 27 29  2  0  0  0  0
 27 30  1  0  0  0  0
  3 31  1  0  0  0  0
  4 32  1  0  0  0  0
  7 33  1  0  0  0  0
  9 34  1  0  0  0  0
 12 35  1  0  0  0  0
 13 36  1  0  0  0  0
 14 37  1  0  0  0  0
 15 38  1  0  0  0  0
 19 39  1  0  0  0  0
 19 40  1  0  0  0  0
 20 41  1  0  0  0  0
 20 42  1  0  0  0  0
 22 43  1  0  0  0  0
 24 44  1  0  0  0  0
 25 45  1  0  0  0  0
 30 46  1  0  0  0  0
 30 47  1  0  0  0  0
 30 48  1  0  0  0  0
M  END
> <ID>
58

> <IC50[uM]>
0.202

$$$$
58
  -OEChem-05192314313D
 Structure written by MMmdl.
 48 52  0     0  0  0  0  0  0999 V2000
   94.8013   46.5214  266.7826 N   0  0  0  0  0  0  0  0  0  0  0  0
   95.5604   48.9616  267.9505 N   0  0  0  0  0  0  0  0  0  0  0  0
   96.4513   47.9564  267.7616 C   0  0  0  0  0  0  0  0  0  0  0  0
   96.0690   46.7404  267.2068 C   0  0  0  0  0  0  0  0  0  0  0  0
   94.2685   48.7751  267.5275 C   0  0  0  0  0  0  0  0  0  0  0  0
   93.8968   47.5294  266.9259 C   0  0  0  0  0  0  0  0  0  0  0  0
   92.5695   47.3323  266.4865 C   0  0  0  0  0  0  0  0  0  0  0  0
   91.6129   48.3253  266.6755 C   0  0  0  0  0  0  0  0  0  0  0  0
   91.9685   49.5269  267.2835 C   0  0  0  0  0  0  0  0  0  0  0  0
   93.2847   49.7945  267.6974 C   0  0  0  0  0  0  0  0  0  0  0  0
   93.5894   51.1028  268.3276 C   0  0  0  0  0  0  0  0  0  0  0  0
   90.2782   48.1195  266.3117 N   0  0  0  0  0  0  0  0  0  0  0  0
   94.5708   51.9469  267.7831 C   0  0  0  0  0  0  0  0  0  0  0  0
   94.8595   53.1857  268.3749 C   0  0  0  0  0  0  0  0  0  0  0  0
   92.9123   51.4978  269.4953 C   0  0  0  0  0  0  0  0  0  0  0  0
   93.2007   52.7289  270.0653 C   0  0  0  0  0  0  0  0  0  0  0  0
   94.1307   53.5569  269.5027 C   0  0  0  0  0  0  0  0  0  0  0  0
   94.3320   54.7281  270.1938 O   0  0  0  0  0  0  0  0  0  0  0  0
   93.3593   54.7303  271.2476 C   0  0  0  0  0  0  0  0  0  0  0  0
   92.7695   53.3637  271.3461 C   0  0  0  0  0  0  0  0  0  0  0  0
   89.7154   47.3416  265.2852 C   0  0  0  0  0  0  0  0  0  0  0  0
   90.4167   47.1271  264.0903 C   0  0  0  0  0  0  0  0  0  0  0  0
   89.9109   46.4408  263.0386 N   0  0  0  0  0  0  0  0  0  0  0  0
   88.6582   45.9328  263.1640 C   0  0  0  0  0  0  0  0  0  0  0  0
   87.8902   46.0836  264.3159 C   0  0  0  0  0  0  0  0  0  0  0  0
   88.4237   46.7992  265.3955 C   0  0  0  0  0  0  0  0  0  0  0  0
   87.4810   46.9013  266.9181 S   0  0  0  0  0  0  0  0  0  0  0  0
   86.1283   46.4027  266.6622 O   0  0  0  0  0  0  0  0  0  0  0  0
   87.6749   48.2444  267.4795 O   0  0  0  0  0  0  0  0  0  0  0  0
   88.3720   45.6610  268.0177 C   0  0  0  0  0  0  0  0  0  0  0  0
   94.5377   45.6464  266.3766 H   0  0  0  0  0  0  0  0  0  0  0  0
   97.4818   48.1042  268.0490 H   0  0  0  0  0  0  0  0  0  0  0  0
   96.8003   45.9514  267.1117 H   0  0  0  0  0  0  0  0  0  0  0  0
   92.2954   46.4070  266.0017 H   0  0  0  0  0  0  0  0  0  0  0  0
   91.2082   50.2773  267.4420 H   0  0  0  0  0  0  0  0  0  0  0  0
   95.1093   51.6390  266.8990 H   0  0  0  0  0  0  0  0  0  0  0  0
   95.6235   53.8319  267.9686 H   0  0  0  0  0  0  0  0  0  0  0  0
   92.1748   50.8487  269.9438 H   0  0  0  0  0  0  0  0  0  0  0  0
   93.8430   54.9958  272.1992 H   0  0  0  0  0  0  0  0  0  0  0  0
   92.5686   55.4609  271.0219 H   0  0  0  0  0  0  0  0  0  0  0  0
   91.6727   53.4089  271.4172 H   0  0  0  0  0  0  0  0  0  0  0  0
   93.1711   52.8196  272.2137 H   0  0  0  0  0  0  0  0  0  0  0  0
   91.4145   47.5313  264.0042 H   0  0  0  0  0  0  0  0  0  0  0  0
   88.2380   45.3867  262.3324 H   0  0  0  0  0  0  0  0  0  0  0  0
   86.9002   45.6561  264.3758 H   0  0  0  0  0  0  0  0  0  0  0  0
   87.8832   45.6259  269.0025 H   0  0  0  0  0  0  0  0  0  0  0  0
   88.3325   44.6647  267.5532 H   0  0  0  0  0  0  0  0  0  0  0  0
   89.4214   45.9672  268.1400 H   0  0  0  0  0  0  0  0  0  0  0  0
  1  4  1  0  0  0  0
  1  6  1  0  0  0  0
  2  3  1  0  0  0  0
  2  5  2  0  0  0  0
  3  4  2  0  0  0  0
  5  6  1  0  0  0  0
  5 10  1  0  0  0  0
  6  7  2  0  0  0  0
  7  8  1  0  0  0  0
  8  9  1  0  0  0  0
  8 12  2  3  0  0  0
  9 10  2  0  0  0  0
 10 11  1  0  0  0  0
 11 13  2  0  0  0  0
 11 15  1  0  0  0  0
 12 21  1  0  0  0  0
 13 14  1  0  0  0  0
 14 17  2  0  0  0  0
 15 16  2  0  0  0  0
 16 17  1  0  0  0  0
 16 20  1  0  0  0  0
 17 18  1  0  0  0  0
 18 19  1  0  0  0  0
 19 20  1  0  0  0  0
 21 22  2  0  0  0  0
 21 26  1  0  0  0  0
 22 23  1  0  0  0  0
 23 24  2  0  0  0  0
 24 25  1  0  0  0  0
 25 26  2  0  0  0  0
 26 27  1  0  0  0  0
 27 28  2  0  0  0  0
 27 29  2  0  0  0  0
 27 30  1  0  0  0  0
  1 31  1  0  0  0  0
  3 32  1  0  0  0  0
  4 33  1  0  0  0  0
  7 34  1  0  0  0  0
  9 35  1  0  0  0  0
 13 36  1  0  0  0  0
 14 37  1  0  0  0  0
 15 38  1  0  0  0  0
 19 39  1  0  0  0  0
 19 40  1  0  0  0  0
 20 41  1  0  0  0  0
 20 42  1  0  0  0  0
 22 43  1  0  0  0  0
 24 44  1  0  0  0  0
 25 45  1  0  0  0  0
 30 46  1  0  0  0  0
 30 47  1  0  0  0  0
 30 48  1  0  0  0  0
M  END
> <ID>
58

> <IC50[uM]>
0.202

$$$$
58
  -OEChem-05192314313D
 Structure written by MMmdl.
 48 52  0     0  0  0  0  0  0999 V2000
   94.8013   46.5214  266.7826 N   0  0  0  0  0  0  0  0  0  0  0  0
   95.5604   48.9616  267.9505 N   0  0  0  0  0  0  0  0  0  0  0  0
   96.4513   47.9564  267.7616 C   0  0  0  0  0  0  0  0  0  0  0  0
   96.0690   46.7404  267.2068 C   0  0  0  0  0  0  0  0  0  0  0  0
   94.2685   48.7751  267.5275 C   0  0  0  0  0  0  0  0  0  0  0  0
   93.8968   47.5294  266.9259 C   0  0  0  0  0  0  0  0  0  0  0  0
   92.5695   47.3323  266.4865 C   0  0  0  0  0  0  0  0  0  0  0  0
   91.6129   48.3253  266.6755 C   0  0  0  0  0  0  0  0  0  0  0  0
   91.9685   49.5269  267.2835 C   0  0  0  0  0  0  0  0  0  0  0  0
   93.2847   49.7945  267.6974 C   0  0  0  0  0  0  0  0  0  0  0  0
   93.5894   51.1028  268.3276 C   0  0  0  0  0  0  0  0  0  0  0  0
   90.2782   48.1195  266.3117 N   0  0  0  0  0  0  0  0  0  0  0  0
   94.5708   51.9469  267.7831 C   0  0  0  0  0  0  0  0  0  0  0  0
   94.8595   53.1857  268.3749 C   0  0  0  0  0  0  0  0  0  0  0  0
   92.9123   51.4978  269.4953 C   0  0  0  0  0  0  0  0  0  0  0  0
   93.2007   52.7289  270.0653 C   0  0  0  0  0  0  0  0  0  0  0  0
   94.1307   53.5569  269.5027 C   0  0  0  0  0  0  0  0  0  0  0  0
   94.3320   54.7281  270.1938 O   0  0  0  0  0  0  0  0  0  0  0  0
   93.3593   54.7303  271.2476 C   0  0  0  0  0  0  0  0  0  0  0  0
   92.7695   53.3637  271.3461 C   0  0  0  0  0  0  0  0  0  0  0  0
   89.7154   47.3416  265.2852 C   0  0  0  0  0  0  0  0  0  0  0  0
   90.4167   47.1271  264.0903 C   0  0  0  0  0  0  0  0  0  0  0  0
   89.9109   46.4408  263.0386 N   0  0  0  0  0  0  0  0  0  0  0  0
   88.6582   45.9328  263.1640 C   0  0  0  0  0  0  0  0  0  0  0  0
   87.8902   46.0836  264.3159 C   0  0  0  0  0  0  0  0  0  0  0  0
   88.4237   46.7992  265.3955 C   0  0  0  0  0  0  0  0  0  0  0  0
   87.4810   46.9013  266.9181 S   0  0  0  0  0  0  0  0  0  0  0  0
   86.1283   46.4027  266.6622 O   0  0  0  0  0  0  0  0  0  0  0  0
   87.6749   48.2444  267.4795 O   0  0  0  0  0  0  0  0  0  0  0  0
   88.3720   45.6610  268.0177 C   0  0  0  0  0  0  0  0  0  0  0  0
   97.4818   48.1042  268.0490 H   0  0  0  0  0  0  0  0  0  0  0  0
   96.8003   45.9514  267.1117 H   0  0  0  0  0  0  0  0  0  0  0  0
   92.6196   47.1434  265.4040 H   0  0  0  0  0  0  0  0  0  0  0  0
   92.1971   46.4329  266.9988 H   0  0  0  0  0  0  0  0  0  0  0  0
   91.2082   50.2773  267.4420 H   0  0  0  0  0  0  0  0  0  0  0  0
   95.1093   51.6390  266.8990 H   0  0  0  0  0  0  0  0  0  0  0  0
   95.6235   53.8319  267.9686 H   0  0  0  0  0  0  0  0  0  0  0  0
   92.1748   50.8487  269.9438 H   0  0  0  0  0  0  0  0  0  0  0  0
   93.8430   54.9958  272.1992 H   0  0  0  0  0  0  0  0  0  0  0  0
   92.5686   55.4609  271.0219 H   0  0  0  0  0  0  0  0  0  0  0  0
   91.6727   53.4089  271.4172 H   0  0  0  0  0  0  0  0  0  0  0  0
   93.1711   52.8196  272.2137 H   0  0  0  0  0  0  0  0  0  0  0  0
   91.4145   47.5313  264.0042 H   0  0  0  0  0  0  0  0  0  0  0  0
   88.2380   45.3867  262.3324 H   0  0  0  0  0  0  0  0  0  0  0  0
   86.9002   45.6561  264.3758 H   0  0  0  0  0  0  0  0  0  0  0  0
   87.8832   45.6259  269.0025 H   0  0  0  0  0  0  0  0  0  0  0  0
   88.3325   44.6647  267.5532 H   0  0  0  0  0  0  0  0  0  0  0  0
   89.4214   45.9672  268.1400 H   0  0  0  0  0  0  0  0  0  0  0  0
  1  4  2  0  0  0  0
  1  6  1  0  0  0  0
  2  3  2  0  0  0  0
  2  5  1  0  0  0  0
  3  4  1  0  0  0  0
  5  6  2  0  0  0  0
  5 10  1  0  0  0  0
  6  7  1  0  0  0  0
  7  8  1  0  0  0  0
  8  9  1  0  0  0  0
  8 12  2  3  0  0  0
  9 10  2  0  0  0  0
 10 11  1  0  0  0  0
 11 13  2  0  0  0  0
 11 15  1  0  0  0  0
 12 21  1  0  0  0  0
 13 14  1  0  0  0  0
 14 17  2  0  0  0  0
 15 16  2  0  0  0  0
 16 17  1  0  0  0  0
 16 20  1  0  0  0  0
 17 18  1  0  0  0  0
 18 19  1  0  0  0  0
 19 20  1  0  0  0  0
 21 22  2  0  0  0  0
 21 26  1  0  0  0  0
 22 23  1  0  0  0  0
 23 24  2  0  0  0  0
 24 25  1  0  0  0  0
 25 26  2  0  0  0  0
 26 27  1  0  0  0  0
 27 28  2  0  0  0  0
 27 29  2  0  0  0  0
 27 30  1  0  0  0  0
  3 31  1  0  0  0  0
  4 32  1  0  0  0  0
  7 33  1  0  0  0  0
  7 34  1  0  0  0  0
  9 35  1  0  0  0  0
 13 36  1  0  0  0  0
 14 37  1  0  0  0  0
 15 38  1  0  0  0  0
 19 39  1  0  0  0  0
 19 40  1  0  0  0  0
 20 41  1  0  0  0  0
 20 42  1  0  0  0  0
 22 43  1  0  0  0  0
 24 44  1  0  0  0  0
 25 45  1  0  0  0  0
 30 46  1  0  0  0  0
 30 47  1  0  0  0  0
 30 48  1  0  0  0  0
M  END
> <ID>
58

> <IC50[uM]>
0.202

$$$$
58
  -OEChem-05192314313D
 Structure written by MMmdl.
 48 52  0     0  0  0  0  0  0999 V2000
   94.8013   46.5214  266.7826 N   0  0  0  0  0  0  0  0  0  0  0  0
   95.5604   48.9616  267.9505 N   0  0  0  0  0  0  0  0  0  0  0  0
   96.4513   47.9564  267.7616 C   0  0  0  0  0  0  0  0  0  0  0  0
   96.0690   46.7404  267.2068 C   0  0  0  0  0  0  0  0  0  0  0  0
   94.2685   48.7751  267.5275 C   0  0  0  0  0  0  0  0  0  0  0  0
   93.8968   47.5294  266.9259 C   0  0  0  0  0  0  0  0  0  0  0  0
   92.5695   47.3323  266.4865 C   0  0  0  0  0  0  0  0  0  0  0  0
   91.6129   48.3253  266.6755 C   0  0  0  0  0  0  0  0  0  0  0  0
   91.9685   49.5269  267.2835 C   0  0  0  0  0  0  0  0  0  0  0  0
   93.2847   49.7945  267.6974 C   0  0  0  0  0  0  0  0  0  0  0  0
   93.5894   51.1028  268.3276 C   0  0  0  0  0  0  0  0  0  0  0  0
   90.2782   48.1195  266.3117 N   0  0  0  0  0  0  0  0  0  0  0  0
   94.5708   51.9469  267.7831 C   0  0  0  0  0  0  0  0  0  0  0  0
   94.8595   53.1857  268.3749 C   0  0  0  0  0  0  0  0  0  0  0  0
   92.9123   51.4978  269.4953 C   0  0  0  0  0  0  0  0  0  0  0  0
   93.2007   52.7289  270.0653 C   0  0  0  0  0  0  0  0  0  0  0  0
   94.1307   53.5569  269.5027 C   0  0  0  0  0  0  0  0  0  0  0  0
   94.3320   54.7281  270.1938 O   0  0  0  0  0  0  0  0  0  0  0  0
   93.3593   54.7303  271.2476 C   0  0  0  0  0  0  0  0  0  0  0  0
   92.7695   53.3637  271.3461 C   0  0  0  0  0  0  0  0  0  0  0  0
   89.7154   47.3416  265.2852 C   0  0  0  0  0  0  0  0  0  0  0  0
   90.4167   47.1271  264.0903 C   0  0  0  0  0  0  0  0  0  0  0  0
   89.9109   46.4408  263.0386 N   0  0  0  0  0  0  0  0  0  0  0  0
   88.6582   45.9328  263.1640 C   0  0  0  0  0  0  0  0  0  0  0  0
   87.8902   46.0836  264.3159 C   0  0  0  0  0  0  0  0  0  0  0  0
   88.4237   46.7992  265.3955 C   0  0  0  0  0  0  0  0  0  0  0  0
   87.4810   46.9013  266.9181 S   0  0  0  0  0  0  0  0  0  0  0  0
   86.1283   46.4027  266.6622 O   0  0  0  0  0  0  0  0  0  0  0  0
   87.6749   48.2444  267.4795 O   0  0  0  0  0  0  0  0  0  0  0  0
   88.3720   45.6610  268.0177 C   0  0  0  0  0  0  0  0  0  0  0  0
   97.4818   48.1042  268.0490 H   0  0  0  0  0  0  0  0  0  0  0  0
   96.8003   45.9514  267.1117 H   0  0  0  0  0  0  0  0  0  0  0  0
   92.2954   46.4070  266.0017 H   0  0  0  0  0  0  0  0  0  0  0  0
   91.7027   50.3220  266.5714 H   0  0  0  0  0  0  0  0  0  0  0  0
   91.3401   49.6143  268.1821 H   0  0  0  0  0  0  0  0  0  0  0  0
   95.1093   51.6390  266.8990 H   0  0  0  0  0  0  0  0  0  0  0  0
   95.6235   53.8319  267.9686 H   0  0  0  0  0  0  0  0  0  0  0  0
   92.1748   50.8487  269.9438 H   0  0  0  0  0  0  0  0  0  0  0  0
   93.8430   54.9958  272.1992 H   0  0  0  0  0  0  0  0  0  0  0  0
   92.5686   55.4609  271.0219 H   0  0  0  0  0  0  0  0  0  0  0  0
   91.6727   53.4089  271.4172 H   0  0  0  0  0  0  0  0  0  0  0  0
   93.1711   52.8196  272.2137 H   0  0  0  0  0  0  0  0  0  0  0  0
   91.4145   47.5313  264.0042 H   0  0  0  0  0  0  0  0  0  0  0  0
   88.2380   45.3867  262.3324 H   0  0  0  0  0  0  0  0  0  0  0  0
   86.9002   45.6561  264.3758 H   0  0  0  0  0  0  0  0  0  0  0  0
   87.8832   45.6259  269.0025 H   0  0  0  0  0  0  0  0  0  0  0  0
   88.3325   44.6647  267.5532 H   0  0  0  0  0  0  0  0  0  0  0  0
   89.4214   45.9672  268.1400 H   0  0  0  0  0  0  0  0  0  0  0  0
  1  4  2  0  0  0  0
  1  6  1  0  0  0  0
  2  3  2  0  0  0  0
  2  5  1  0  0  0  0
  3  4  1  0  0  0  0
  5  6  1  0  0  0  0
  5 10  2  0  0  0  0
  6  7  2  0  0  0  0
  7  8  1  0  0  0  0
  8  9  1  0  0  0  0
  8 12  2  3  0  0  0
  9 10  1  0  0  0  0
 10 11  1  0  0  0  0
 11 13  2  0  0  0  0
 11 15  1  0  0  0  0
 12 21  1  0  0  0  0
 13 14  1  0  0  0  0
 14 17  2  0  0  0  0
 15 16  2  0  0  0  0
 16 17  1  0  0  0  0
 16 20  1  0  0  0  0
 17 18  1  0  0  0  0
 18 19  1  0  0  0  0
 19 20  1  0  0  0  0
 21 22  2  0  0  0  0
 21 26  1  0  0  0  0
 22 23  1  0  0  0  0
 23 24  2  0  0  0  0
 24 25  1  0  0  0  0
 25 26  2  0  0  0  0
 26 27  1  0  0  0  0
 27 28  2  0  0  0  0
 27 29  2  0  0  0  0
 27 30  1  0  0  0  0
  3 31  1  0  0  0  0
  4 32  1  0  0  0  0
  7 33  1  0  0  0  0
  9 34  1  0  0  0  0
  9 35  1  0  0  0  0
 13 36  1  0  0  0  0
 14 37  1  0  0  0  0
 15 38  1  0  0  0  0
 19 39  1  0  0  0  0
 19 40  1  0  0  0  0
 20 41  1  0  0  0  0
 20 42  1  0  0  0  0
 22 43  1  0  0  0  0
 24 44  1  0  0  0  0
 25 45  1  0  0  0  0
 30 46  1  0  0  0  0
 30 47  1  0  0  0  0
 30 48  1  0  0  0  0
M  END
> <ID>
58

> <IC50[uM]>
0.202

$$$$
58
  -OEChem-05192314313D
 Structure written by MMmdl.
 48 52  0     1  0  0  0  0  0999 V2000
   94.8013   46.5214  266.7826 N   0  0  0  0  0  0  0  0  0  0  0  0
   95.5604   48.9616  267.9505 N   0  0  0  0  0  0  0  0  0  0  0  0
   96.4513   47.9564  267.7616 C   0  0  0  0  0  0  0  0  0  0  0  0
   96.0690   46.7404  267.2068 C   0  0  0  0  0  0  0  0  0  0  0  0
   94.2685   48.7751  267.5275 C   0  0  0  0  0  0  0  0  0  0  0  0
   93.8968   47.5294  266.9259 C   0  0  0  0  0  0  0  0  0  0  0  0
   92.5695   47.3323  266.4865 C   0  0  0  0  0  0  0  0  0  0  0  0
   91.6129   48.3253  266.6755 C   0  0  0  0  0  0  0  0  0  0  0  0
   91.9685   49.5269  267.2835 C   0  0  0  0  0  0  0  0  0  0  0  0
   93.2847   49.7945  267.6974 C   0  0  0  0  0  0  0  0  0  0  0  0
   93.5894   51.1028  268.3276 C   0  0  0  0  0  0  0  0  0  0  0  0
   90.2782   48.1195  266.3117 N   0  0  0  0  0  0  0  0  0  0  0  0
   94.5708   51.9469  267.7831 C   0  0  0  0  0  0  0  0  0  0  0  0
   94.8595   53.1857  268.3749 C   0  0  0  0  0  0  0  0  0  0  0  0
   92.9123   51.4978  269.4953 C   0  0  0  0  0  0  0  0  0  0  0  0
   93.2007   52.7289  270.0653 C   0  0  0  0  0  0  0  0  0  0  0  0
   94.1307   53.5569  269.5027 C   0  0  0  0  0  0  0  0  0  0  0  0
   94.3320   54.7281  270.1938 O   0  0  0  0  0  0  0  0  0  0  0  0
   93.3593   54.7303  271.2476 C   0  0  0  0  0  0  0  0  0  0  0  0
   92.7695   53.3637  271.3461 C   0  0  0  0  0  0  0  0  0  0  0  0
   89.7154   47.3416  265.2852 C   0  0  0  0  0  0  0  0  0  0  0  0
   90.4167   47.1271  264.0903 C   0  0  0  0  0  0  0  0  0  0  0  0
   89.9109   46.4408  263.0386 N   0  0  0  0  0  0  0  0  0  0  0  0
   88.6582   45.9328  263.1640 C   0  0  0  0  0  0  0  0  0  0  0  0
   87.8902   46.0836  264.3159 C   0  0  0  0  0  0  0  0  0  0  0  0
   88.4237   46.7992  265.3955 C   0  0  3  0  0  0  0  0  0  0  0  0
   87.4810   46.9013  266.9181 S   0  0  0  0  0  0  0  0  0  0  0  0
   86.1283   46.4027  266.6622 O   0  0  0  0  0  0  0  0  0  0  0  0
   87.6749   48.2444  267.4795 O   0  0  0  0  0  0  0  0  0  0  0  0
   88.3720   45.6610  268.0177 C   0  0  0  0  0  0  0  0  0  0  0  0
   97.4818   48.1042  268.0490 H   0  0  0  0  0  0  0  0  0  0  0  0
   96.8003   45.9514  267.1117 H   0  0  0  0  0  0  0  0  0  0  0  0
   92.2954   46.4070  266.0017 H   0  0  0  0  0  0  0  0  0  0  0  0
   91.2082   50.2773  267.4420 H   0  0  0  0  0  0  0  0  0  0  0  0
   95.1093   51.6390  266.8990 H   0  0  0  0  0  0  0  0  0  0  0  0
   95.6235   53.8319  267.9686 H   0  0  0  0  0  0  0  0  0  0  0  0
   92.1748   50.8487  269.9438 H   0  0  0  0  0  0  0  0  0  0  0  0
   93.8430   54.9958  272.1992 H   0  0  0  0  0  0  0  0  0  0  0  0
   92.5686   55.4609  271.0219 H   0  0  0  0  0  0  0  0  0  0  0  0
   91.6727   53.4089  271.4172 H   0  0  0  0  0  0  0  0  0  0  0  0
   93.1711   52.8196  272.2137 H   0  0  0  0  0  0  0  0  0  0  0  0
   91.4145   47.5313  264.0042 H   0  0  0  0  0  0  0  0  0  0  0  0
   88.2380   45.3867  262.3324 H   0  0  0  0  0  0  0  0  0  0  0  0
   86.9002   45.6561  264.3758 H   0  0  0  0  0  0  0  0  0  0  0  0
   87.9730   47.7340  265.0309 H   0  0  0  0  0  0  0  0  0  0  0  0
   87.8832   45.6259  269.0025 H   0  0  0  0  0  0  0  0  0  0  0  0
   88.3325   44.6647  267.5532 H   0  0  0  0  0  0  0  0  0  0  0  0
   89.4214   45.9672  268.1400 H   0  0  0  0  0  0  0  0  0  0  0  0
  1  4  2  0  0  0  0
  1  6  1  0  0  0  0
  2  3  2  0  0  0  0
  2  5  1  0  0  0  0
  3  4  1  0  0  0  0
  5  6  2  0  0  0  0
  5 10  1  0  0  0  0
  6  7  1  0  0  0  0
  7  8  2  0  0  0  0
  8  9  1  0  0  0  0
  8 12  1  0  0  0  0
  9 10  2  0  0  0  0
 10 11  1  0  0  0  0
 11 13  2  0  0  0  0
 11 15  1  0  0  0  0
 12 21  2  3  0  0  0
 13 14  1  0  0  0  0
 14 17  2  0  0  0  0
 15 16  2  0  0  0  0
 16 17  1  0  0  0  0
 16 20  1  0  0  0  0
 17 18  1  0  0  0  0
 18 19  1  0  0  0  0
 19 20  1  0  0  0  0
 21 22  1  0  0  0  0
 21 26  1  0  0  0  0
 22 23  2  0  0  0  0
 23 24  1  0  0  0  0
 24 25  2  0  0  0  0
 25 26  1  0  0  0  0
 26 27  1  0  0  0  0
 27 28  2  0  0  0  0
 27 29  2  0  0  0  0
 27 30  1  0  0  0  0
  3 31  1  0  0  0  0
  4 32  1  0  0  0  0
  7 33  1  0  0  0  0
  9 34  1  0  0  0  0
 13 35  1  0  0  0  0
 14 36  1  0  0  0  0
 15 37  1  0  0  0  0
 19 38  1  0  0  0  0
 19 39  1  0  0  0  0
 20 40  1  0  0  0  0
 20 41  1  0  0  0  0
 22 42  1  0  0  0  0
 24 43  1  0  0  0  0
 25 44  1  0  0  0  0
 26 45  1  0  0  0  0
 30 46  1  0  0  0  0
 30 47  1  0  0  0  0
 30 48  1  0  0  0  0
M  END
> <ID>
58

> <IC50[uM]>
0.202

$$$$
58
  -OEChem-05192314313D
 Structure written by MMmdl.
 48 52  0     0  0  0  0  0  0999 V2000
   94.8013   46.5214  266.7826 N   0  0  0  0  0  0  0  0  0  0  0  0
   95.5604   48.9616  267.9505 N   0  0  0  0  0  0  0  0  0  0  0  0
   96.4513   47.9564  267.7616 C   0  0  0  0  0  0  0  0  0  0  0  0
   96.0690   46.7404  267.2068 C   0  0  0  0  0  0  0  0  0  0  0  0
   94.2685   48.7751  267.5275 C   0  0  0  0  0  0  0  0  0  0  0  0
   93.8968   47.5294  266.9259 C   0  0  0  0  0  0  0  0  0  0  0  0
   92.5695   47.3323  266.4865 C   0  0  0  0  0  0  0  0  0  0  0  0
   91.6129   48.3253  266.6755 C   0  0  0  0  0  0  0  0  0  0  0  0
   91.9685   49.5269  267.2835 C   0  0  0  0  0  0  0  0  0  0  0  0
   93.2847   49.7945  267.6974 C   0  0  0  0  0  0  0  0  0  0  0  0
   93.5894   51.1028  268.3276 C   0  0  0  0  0  0  0  0  0  0  0  0
   90.2782   48.1195  266.3117 N   0  0  0  0  0  0  0  0  0  0  0  0
   94.5708   51.9469  267.7831 C   0  0  0  0  0  0  0  0  0  0  0  0
   94.8595   53.1857  268.3749 C   0  0  0  0  0  0  0  0  0  0  0  0
   92.9123   51.4978  269.4953 C   0  0  0  0  0  0  0  0  0  0  0  0
   93.2007   52.7289  270.0653 C   0  0  0  0  0  0  0  0  0  0  0  0
   94.1307   53.5569  269.5027 C   0  0  0  0  0  0  0  0  0  0  0  0
   94.3320   54.7281  270.1938 O   0  0  0  0  0  0  0  0  0  0  0  0
   93.3593   54.7303  271.2476 C   0  0  0  0  0  0  0  0  0  0  0  0
   92.7695   53.3637  271.3461 C   0  0  0  0  0  0  0  0  0  0  0  0
   89.7154   47.3416  265.2852 C   0  0  0  0  0  0  0  0  0  0  0  0
   90.4167   47.1271  264.0903 C   0  0  0  0  0  0  0  0  0  0  0  0
   89.9109   46.4408  263.0386 N   0  0  0  0  0  0  0  0  0  0  0  0
   88.6582   45.9328  263.1640 C   0  0  0  0  0  0  0  0  0  0  0  0
   87.8902   46.0836  264.3159 C   0  0  0  0  0  0  0  0  0  0  0  0
   88.4237   46.7992  265.3955 C   0  0  0  0  0  0  0  0  0  0  0  0
   87.4810   46.9013  266.9181 S   0  0  0  0  0  0  0  0  0  0  0  0
   86.1283   46.4027  266.6622 O   0  0  0  0  0  0  0  0  0  0  0  0
   87.6749   48.2444  267.4795 O   0  0  0  0  0  0  0  0  0  0  0  0
   88.3720   45.6610  268.0177 C   0  0  0  0  0  0  0  0  0  0  0  0
   97.4818   48.1042  268.0490 H   0  0  0  0  0  0  0  0  0  0  0  0
   96.8003   45.9514  267.1117 H   0  0  0  0  0  0  0  0  0  0  0  0
   92.2954   46.4070  266.0017 H   0  0  0  0  0  0  0  0  0  0  0  0
   91.2082   50.2773  267.4420 H   0  0  0  0  0  0  0  0  0  0  0  0
   95.1093   51.6390  266.8990 H   0  0  0  0  0  0  0  0  0  0  0  0
   95.6235   53.8319  267.9686 H   0  0  0  0  0  0  0  0  0  0  0  0
   92.1748   50.8487  269.9438 H   0  0  0  0  0  0  0  0  0  0  0  0
   93.8430   54.9958  272.1992 H   0  0  0  0  0  0  0  0  0  0  0  0
   92.5686   55.4609  271.0219 H   0  0  0  0  0  0  0  0  0  0  0  0
   91.6727   53.4089  271.4172 H   0  0  0  0  0  0  0  0  0  0  0  0
   93.1711   52.8196  272.2137 H   0  0  0  0  0  0  0  0  0  0  0  0
   91.4145   47.5313  264.0042 H   0  0  0  0  0  0  0  0  0  0  0  0
   88.0689   46.3745  262.3470 H   0  0  0  0  0  0  0  0  0  0  0  0
   88.7533   44.8488  263.0030 H   0  0  0  0  0  0  0  0  0  0  0  0
   86.9002   45.6561  264.3758 H   0  0  0  0  0  0  0  0  0  0  0  0
   87.8832   45.6259  269.0025 H   0  0  0  0  0  0  0  0  0  0  0  0
   88.3325   44.6647  267.5532 H   0  0  0  0  0  0  0  0  0  0  0  0
   89.4214   45.9672  268.1400 H   0  0  0  0  0  0  0  0  0  0  0  0
  1  4  2  0  0  0  0
  1  6  1  0  0  0  0
  2  3  2  0  0  0  0
  2  5  1  0  0  0  0
  3  4  1  0  0  0  0
  5  6  2  0  0  0  0
  5 10  1  0  0  0  0
  6  7  1  0  0  0  0
  7  8  2  0  0  0  0
  8  9  1  0  0  0  0
  8 12  1  0  0  0  0
  9 10  2  0  0  0  0
 10 11  1  0  0  0  0
 11 13  2  0  0  0  0
 11 15  1  0  0  0  0
 12 21  2  3  0  0  0
 13 14  1  0  0  0  0
 14 17  2  0  0  0  0
 15 16  2  0  0  0  0
 16 17  1  0  0  0  0
 16 20  1  0  0  0  0
 17 18  1  0  0  0  0
 18 19  1  0  0  0  0
 19 20  1  0  0  0  0
 21 22  1  0  0  0  0
 21 26  1  0  0  0  0
 22 23  2  0  0  0  0
 23 24  1  0  0  0  0
 24 25  1  0  0  0  0
 25 26  2  0  0  0  0
 26 27  1  0  0  0  0
 27 28  2  0  0  0  0
 27 29  2  0  0  0  0
 27 30  1  0  0  0  0
  3 31  1  0  0  0  0
  4 32  1  0  0  0  0
  7 33  1  0  0  0  0
  9 34  1  0  0  0  0
 13 35  1  0  0  0  0
 14 36  1  0  0  0  0
 15 37  1  0  0  0  0
 19 38  1  0  0  0  0
 19 39  1  0  0  0  0
 20 40  1  0  0  0  0
 20 41  1  0  0  0  0
 22 42  1  0  0  0  0
 24 43  1  0  0  0  0
 24 44  1  0  0  0  0
 25 45  1  0  0  0  0
 30 46  1  0  0  0  0
 30 47  1  0  0  0  0
 30 48  1  0  0  0  0
M  END
> <ID>
58

> <IC50[uM]>
0.202

$$$$
58
  -OEChem-05192314313D
 Structure written by MMmdl.
 48 52  0     0  0  0  0  0  0999 V2000
   94.8013   46.5214  266.7826 N   0  0  0  0  0  0  0  0  0  0  0  0
   95.5604   48.9616  267.9505 N   0  0  0  0  0  0  0  0  0  0  0  0
   96.4513   47.9564  267.7616 C   0  0  0  0  0  0  0  0  0  0  0  0
   96.0690   46.7404  267.2068 C   0  0  0  0  0  0  0  0  0  0  0  0
   94.2685   48.7751  267.5275 C   0  0  0  0  0  0  0  0  0  0  0  0
   93.8968   47.5294  266.9259 C   0  0  0  0  0  0  0  0  0  0  0  0
   92.5695   47.3323  266.4865 C   0  0  0  0  0  0  0  0  0  0  0  0
   91.6129   48.3253  266.6755 C   0  0  0  0  0  0  0  0  0  0  0  0
   91.9685   49.5269  267.2835 C   0  0  0  0  0  0  0  0  0  0  0  0
   93.2847   49.7945  267.6974 C   0  0  0  0  0  0  0  0  0  0  0  0
   93.5894   51.1028  268.3276 C   0  0  0  0  0  0  0  0  0  0  0  0
   90.2782   48.1195  266.3117 N   0  0  0  0  0  0  0  0  0  0  0  0
   94.5708   51.9469  267.7831 C   0  0  0  0  0  0  0  0  0  0  0  0
   94.8595   53.1857  268.3749 C   0  0  0  0  0  0  0  0  0  0  0  0
   92.9123   51.4978  269.4953 C   0  0  0  0  0  0  0  0  0  0  0  0
   93.2007   52.7289  270.0653 C   0  0  0  0  0  0  0  0  0  0  0  0
   94.1307   53.5569  269.5027 C   0  0  0  0  0  0  0  0  0  0  0  0
   94.3320   54.7281  270.1938 O   0  0  0  0  0  0  0  0  0  0  0  0
   93.3593   54.7303  271.2476 C   0  0  0  0  0  0  0  0  0  0  0  0
   92.7695   53.3637  271.3461 C   0  0  0  0  0  0  0  0  0  0  0  0
   89.7154   47.3416  265.2852 C   0  0  0  0  0  0  0  0  0  0  0  0
   90.4167   47.1271  264.0903 C   0  0  0  0  0  0  0  0  0  0  0  0
   89.9109   46.4408  263.0386 N   0  0  0  0  0  0  0  0  0  0  0  0
   88.6582   45.9328  263.1640 C   0  0  0  0  0  0  0  0  0  0  0  0
   87.8902   46.0836  264.3159 C   0  0  0  0  0  0  0  0  0  0  0  0
   88.4237   46.7992  265.3955 C   0  0  0  0  0  0  0  0  0  0  0  0
   87.4810   46.9013  266.9181 S   0  0  0  0  0  0  0  0  0  0  0  0
   86.1283   46.4027  266.6622 O   0  0  0  0  0  0  0  0  0  0  0  0
   87.6749   48.2444  267.4795 O   0  0  0  0  0  0  0  0  0  0  0  0
   88.3720   45.6610  268.0177 C   0  0  0  0  0  0  0  0  0  0  0  0
   97.4818   48.1042  268.0490 H   0  0  0  0  0  0  0  0  0  0  0  0
   96.8003   45.9514  267.1117 H   0  0  0  0  0  0  0  0  0  0  0  0
   92.2954   46.4070  266.0017 H   0  0  0  0  0  0  0  0  0  0  0  0
   91.2082   50.2773  267.4420 H   0  0  0  0  0  0  0  0  0  0  0  0
   95.1093   51.6390  266.8990 H   0  0  0  0  0  0  0  0  0  0  0  0
   95.6235   53.8319  267.9686 H   0  0  0  0  0  0  0  0  0  0  0  0
   92.1748   50.8487  269.9438 H   0  0  0  0  0  0  0  0  0  0  0  0
   93.8430   54.9958  272.1992 H   0  0  0  0  0  0  0  0  0  0  0  0
   92.5686   55.4609  271.0219 H   0  0  0  0  0  0  0  0  0  0  0  0
   91.6727   53.4089  271.4172 H   0  0  0  0  0  0  0  0  0  0  0  0
   93.1711   52.8196  272.2137 H   0  0  0  0  0  0  0  0  0  0  0  0
   90.6659   48.1267  263.7047 H   0  0  0  0  0  0  0  0  0  0  0  0
   91.3410   46.6028  264.3745 H   0  0  0  0  0  0  0  0  0  0  0  0
   88.2380   45.3867  262.3324 H   0  0  0  0  0  0  0  0  0  0  0  0
   86.9002   45.6561  264.3758 H   0  0  0  0  0  0  0  0  0  0  0  0
   87.8832   45.6259  269.0025 H   0  0  0  0  0  0  0  0  0  0  0  0
   88.3325   44.6647  267.5532 H   0  0  0  0  0  0  0  0  0  0  0  0
   89.4214   45.9672  268.1400 H   0  0  0  0  0  0  0  0  0  0  0  0
  1  4  2  0  0  0  0
  1  6  1  0  0  0  0
  2  3  2  0  0  0  0
  2  5  1  0  0  0  0
  3  4  1  0  0  0  0
  5  6  2  0  0  0  0
  5 10  1  0  0  0  0
  6  7  1  0  0  0  0
  7  8  2  0  0  0  0
  8  9  1  0  0  0  0
  8 12  1  0  0  0  0
  9 10  2  0  0  0  0
 10 11  1  0  0  0  0
 11 13  2  0  0  0  0
 11 15  1  0  0  0  0
 12 21  2  3  0  0  0
 13 14  1  0  0  0  0
 14 17  2  0  0  0  0
 15 16  2  0  0  0  0
 16 17  1  0  0  0  0
 16 20  1  0  0  0  0
 17 18  1  0  0  0  0
 18 19  1  0  0  0  0
 19 20  1  0  0  0  0
 21 22  1  0  0  0  0
 21 26  1  0  0  0  0
 22 23  1  0  0  0  0
 23 24  2  0  0  0  0
 24 25  1  0  0  0  0
 25 26  2  0  0  0  0
 26 27  1  0  0  0  0
 27 28  2  0  0  0  0
 27 29  2  0  0  0  0
 27 30  1  0  0  0  0
  3 31  1  0  0  0  0
  4 32  1  0  0  0  0
  7 33  1  0  0  0  0
  9 34  1  0  0  0  0
 13 35  1  0  0  0  0
 14 36  1  0  0  0  0
 15 37  1  0  0  0  0
 19 38  1  0  0  0  0
 19 39  1  0  0  0  0
 20 40  1  0  0  0  0
 20 41  1  0  0  0  0
 22 42  1  0  0  0  0
 22 43  1  0  0  0  0
 24 44  1  0  0  0  0
 25 45  1  0  0  0  0
 30 46  1  0  0  0  0
 30 47  1  0  0  0  0
 30 48  1  0  0  0  0
M  END
> <ID>
58

> <IC50[uM]>
0.202

$$$$
58
  -OEChem-05192314313D
 Structure written by MMmdl.
 48 52  0     1  0  0  0  0  0999 V2000
   94.8013   46.5214  266.7826 N   0  0  0  0  0  0  0  0  0  0  0  0
   95.5604   48.9616  267.9505 N   0  0  0  0  0  0  0  0  0  0  0  0
   96.4513   47.9564  267.7616 C   0  0  0  0  0  0  0  0  0  0  0  0
   96.0690   46.7404  267.2068 C   0  0  0  0  0  0  0  0  0  0  0  0
   94.2685   48.7751  267.5275 C   0  0  3  0  0  0  0  0  0  0  0  0
   93.8968   47.5294  266.9259 C   0  0  0  0  0  0  0  0  0  0  0  0
   92.5695   47.3323  266.4865 C   0  0  0  0  0  0  0  0  0  0  0  0
   91.6129   48.3253  266.6755 C   0  0  0  0  0  0  0  0  0  0  0  0
   91.9685   49.5269  267.2835 C   0  0  0  0  0  0  0  0  0  0  0  0
   93.2847   49.7945  267.6974 C   0  0  0  0  0  0  0  0  0  0  0  0
   93.5894   51.1028  268.3276 C   0  0  0  0  0  0  0  0  0  0  0  0
   90.2782   48.1195  266.3117 N   0  0  0  0  0  0  0  0  0  0  0  0
   94.5708   51.9469  267.7831 C   0  0  0  0  0  0  0  0  0  0  0  0
   94.8595   53.1857  268.3749 C   0  0  0  0  0  0  0  0  0  0  0  0
   92.9123   51.4978  269.4953 C   0  0  0  0  0  0  0  0  0  0  0  0
   93.2007   52.7289  270.0653 C   0  0  0  0  0  0  0  0  0  0  0  0
   94.1307   53.5569  269.5027 C   0  0  0  0  0  0  0  0  0  0  0  0
   94.3320   54.7281  270.1938 O   0  0  0  0  0  0  0  0  0  0  0  0
   93.3593   54.7303  271.2476 C   0  0  0  0  0  0  0  0  0  0  0  0
   92.7695   53.3637  271.3461 C   0  0  0  0  0  0  0  0  0  0  0  0
   89.7154   47.3416  265.2852 C   0  0  0  0  0  0  0  0  0  0  0  0
   90.4167   47.1271  264.0903 C   0  0  0  0  0  0  0  0  0  0  0  0
   89.9109   46.4408  263.0386 N   0  0  0  0  0  0  0  0  0  0  0  0
   88.6582   45.9328  263.1640 C   0  0  0  0  0  0  0  0  0  0  0  0
   87.8902   46.0836  264.3159 C   0  0  0  0  0  0  0  0  0  0  0  0
   88.4237   46.7992  265.3955 C   0  0  0  0  0  0  0  0  0  0  0  0
   87.4810   46.9013  266.9181 S   0  0  0  0  0  0  0  0  0  0  0  0
   86.1283   46.4027  266.6622 O   0  0  0  0  0  0  0  0  0  0  0  0
   87.6749   48.2444  267.4795 O   0  0  0  0  0  0  0  0  0  0  0  0
   88.3720   45.6610  268.0177 C   0  0  0  0  0  0  0  0  0  0  0  0
   97.4818   48.1042  268.0490 H   0  0  0  0  0  0  0  0  0  0  0  0
   96.8003   45.9514  267.1117 H   0  0  0  0  0  0  0  0  0  0  0  0
   94.5273   49.1818  266.5388 H   0  0  0  0  0  0  0  0  0  0  0  0
   92.2954   46.4070  266.0017 H   0  0  0  0  0  0  0  0  0  0  0  0
   91.2082   50.2773  267.4420 H   0  0  0  0  0  0  0  0  0  0  0  0
   95.1093   51.6390  266.8990 H   0  0  0  0  0  0  0  0  0  0  0  0
   95.6235   53.8319  267.9686 H   0  0  0  0  0  0  0  0  0  0  0  0
   92.1748   50.8487  269.9438 H   0  0  0  0  0  0  0  0  0  0  0  0
   93.8430   54.9958  272.1992 H   0  0  0  0  0  0  0  0  0  0  0  0
   92.5686   55.4609  271.0219 H   0  0  0  0  0  0  0  0  0  0  0  0
   91.6727   53.4089  271.4172 H   0  0  0  0  0  0  0  0  0  0  0  0
   93.1711   52.8196  272.2137 H   0  0  0  0  0  0  0  0  0  0  0  0
   91.4145   47.5313  264.0042 H   0  0  0  0  0  0  0  0  0  0  0  0
   88.2380   45.3867  262.3324 H   0  0  0  0  0  0  0  0  0  0  0  0
   86.9002   45.6561  264.3758 H   0  0  0  0  0  0  0  0  0  0  0  0
   87.8832   45.6259  269.0025 H   0  0  0  0  0  0  0  0  0  0  0  0
   88.3325   44.6647  267.5532 H   0  0  0  0  0  0  0  0  0  0  0  0
   89.4214   45.9672  268.1400 H   0  0  0  0  0  0  0  0  0  0  0  0
  1  4  2  0  0  0  0
  1  6  1  0  0  0  0
  2  3  2  0  0  0  0
  2  5  1  0  0  0  0
  3  4  1  0  0  0  0
  5  6  1  0  0  0  0
  5 10  1  0  0  0  0
  6  7  2  0  0  0  0
  7  8  1  0  0  0  0
  8  9  1  0  0  0  0
  8 12  2  3  0  0  0
  9 10  2  0  0  0  0
 10 11  1  0  0  0  0
 11 13  2  0  0  0  0
 11 15  1  0  0  0  0
 12 21  1  0  0  0  0
 13 14  1  0  0  0  0
 14 17  2  0  0  0  0
 15 16  2  0  0  0  0
 16 17  1  0  0  0  0
 16 20  1  0  0  0  0
 17 18  1  0  0  0  0
 18 19  1  0  0  0  0
 19 20  1  0  0  0  0
 21 22  2  0  0  0  0
 21 26  1  0  0  0  0
 22 23  1  0  0  0  0
 23 24  2  0  0  0  0
 24 25  1  0  0  0  0
 25 26  2  0  0  0  0
 26 27  1  0  0  0  0
 27 28  2  0  0  0  0
 27 29  2  0  0  0  0
 27 30  1  0  0  0  0
  3 31  1  0  0  0  0
  4 32  1  0  0  0  0
  5 33  1  0  0  0  0
  7 34  1  0  0  0  0
  9 35  1  0  0  0  0
 13 36  1  0  0  0  0
 14 37  1  0  0  0  0
 15 38  1  0  0  0  0
 19 39  1  0  0  0  0
 19 40  1  0  0  0  0
 20 41  1  0  0  0  0
 20 42  1  0  0  0  0
 22 43  1  0  0  0  0
 24 44  1  0  0  0  0
 25 45  1  0  0  0  0
 30 46  1  0  0  0  0
 30 47  1  0  0  0  0
 30 48  1  0  0  0  0
M  END
> <ID>
58

> <IC50[uM]>
0.202

$$$$
58
  -OEChem-05192314313D
 Structure written by MMmdl.
 48 52  0     0  0  0  0  0  0999 V2000
   94.8013   46.5214  266.7826 N   0  0  0  0  0  0  0  0  0  0  0  0
   95.5604   48.9616  267.9505 N   0  0  0  0  0  0  0  0  0  0  0  0
   96.4513   47.9564  267.7616 C   0  0  0  0  0  0  0  0  0  0  0  0
   96.0690   46.7404  267.2068 C   0  0  0  0  0  0  0  0  0  0  0  0
   94.2685   48.7751  267.5275 C   0  0  0  0  0  0  0  0  0  0  0  0
   93.8968   47.5294  266.9259 C   0  0  0  0  0  0  0  0  0  0  0  0
   92.5695   47.3323  266.4865 C   0  0  0  0  0  0  0  0  0  0  0  0
   91.6129   48.3253  266.6755 C   0  0  0  0  0  0  0  0  0  0  0  0
   91.9685   49.5269  267.2835 C   0  0  0  0  0  0  0  0  0  0  0  0
   93.2847   49.7945  267.6974 C   0  0  0  0  0  0  0  0  0  0  0  0
   93.5894   51.1028  268.3276 C   0  0  0  0  0  0  0  0  0  0  0  0
   90.2782   48.1195  266.3117 N   0  0  0  0  0  0  0  0  0  0  0  0
   94.5708   51.9469  267.7831 C   0  0  0  0  0  0  0  0  0  0  0  0
   94.8595   53.1857  268.3749 C   0  0  0  0  0  0  0  0  0  0  0  0
   92.9123   51.4978  269.4953 C   0  0  0  0  0  0  0  0  0  0  0  0
   93.2007   52.7289  270.0653 C   0  0  0  0  0  0  0  0  0  0  0  0
   94.1307   53.5569  269.5027 C   0  0  0  0  0  0  0  0  0  0  0  0
   94.3320   54.7281  270.1938 O   0  0  0  0  0  0  0  0  0  0  0  0
   93.3593   54.7303  271.2476 C   0  0  0  0  0  0  0  0  0  0  0  0
   92.7695   53.3637  271.3461 C   0  0  0  0  0  0  0  0  0  0  0  0
   89.7154   47.3416  265.2852 C   0  0  0  0  0  0  0  0  0  0  0  0
   90.4167   47.1271  264.0903 C   0  0  0  0  0  0  0  0  0  0  0  0
   89.9109   46.4408  263.0386 N   0  0  0  0  0  0  0  0  0  0  0  0
   88.6582   45.9328  263.1640 C   0  0  0  0  0  0  0  0  0  0  0  0
   87.8902   46.0836  264.3159 C   0  0  0  0  0  0  0  0  0  0  0  0
   88.4237   46.7992  265.3955 C   0  0  0  0  0  0  0  0  0  0  0  0
   87.4810   46.9013  266.9181 S   0  0  0  0  0  0  0  0  0  0  0  0
   86.1283   46.4027  266.6622 O   0  0  0  0  0  0  0  0  0  0  0  0
   87.6749   48.2444  267.4795 O   0  0  0  0  0  0  0  0  0  0  0  0
   88.3720   45.6610  268.0177 C   0  0  0  0  0  0  0  0  0  0  0  0
   97.2406   48.3599  267.1103 H   0  0  0  0  0  0  0  0  0  0  0  0
   96.8740   47.7267  268.7508 H   0  0  0  0  0  0  0  0  0  0  0  0
   96.8003   45.9514  267.1117 H   0  0  0  0  0  0  0  0  0  0  0  0
   92.2954   46.4070  266.0017 H   0  0  0  0  0  0  0  0  0  0  0  0
   91.2082   50.2773  267.4420 H   0  0  0  0  0  0  0  0  0  0  0  0
   95.1093   51.6390  266.8990 H   0  0  0  0  0  0  0  0  0  0  0  0
   95.6235   53.8319  267.9686 H   0  0  0  0  0  0  0  0  0  0  0  0
   92.1748   50.8487  269.9438 H   0  0  0  0  0  0  0  0  0  0  0  0
   93.8430   54.9958  272.1992 H   0  0  0  0  0  0  0  0  0  0  0  0
   92.5686   55.4609  271.0219 H   0  0  0  0  0  0  0  0  0  0  0  0
   91.6727   53.4089  271.4172 H   0  0  0  0  0  0  0  0  0  0  0  0
   93.1711   52.8196  272.2137 H   0  0  0  0  0  0  0  0  0  0  0  0
   91.4145   47.5313  264.0042 H   0  0  0  0  0  0  0  0  0  0  0  0
   88.2380   45.3867  262.3324 H   0  0  0  0  0  0  0  0  0  0  0  0
   86.9002   45.6561  264.3758 H   0  0  0  0  0  0  0  0  0  0  0  0
   87.8832   45.6259  269.0025 H   0  0  0  0  0  0  0  0  0  0  0  0
   88.3325   44.6647  267.5532 H   0  0  0  0  0  0  0  0  0  0  0  0
   89.4214   45.9672  268.1400 H   0  0  0  0  0  0  0  0  0  0  0  0
  1  4  2  0  0  0  0
  1  6  1  0  0  0  0
  2  3  1  0  0  0  0
  2  5  2  0  0  0  0
  3  4  1  0  0  0  0
  5  6  1  0  0  0  0
  5 10  1  0  0  0  0
  6  7  2  0  0  0  0
  7  8  1  0  0  0  0
  8  9  1  0  0  0  0
  8 12  2  3  0  0  0
  9 10  2  0  0  0  0
 10 11  1  0  0  0  0
 11 13  2  0  0  0  0
 11 15  1  0  0  0  0
 12 21  1  0  0  0  0
 13 14  1  0  0  0  0
 14 17  2  0  0  0  0
 15 16  2  0  0  0  0
 16 17  1  0  0  0  0
 16 20  1  0  0  0  0
 17 18  1  0  0  0  0
 18 19  1  0  0  0  0
 19 20  1  0  0  0  0
 21 22  2  0  0  0  0
 21 26  1  0  0  0  0
 22 23  1  0  0  0  0
 23 24  2  0  0  0  0
 24 25  1  0  0  0  0
 25 26  2  0  0  0  0
 26 27  1  0  0  0  0
 27 28  2  0  0  0  0
 27 29  2  0  0  0  0
 27 30  1  0  0  0  0
  3 31  1  0  0  0  0
  3 32  1  0  0  0  0
  4 33  1  0  0  0  0
  7 34  1  0  0  0  0
  9 35  1  0  0  0  0
 13 36  1  0  0  0  0
 14 37  1  0  0  0  0
 15 38  1  0  0  0  0
 19 39  1  0  0  0  0
 19 40  1  0  0  0  0
 20 41  1  0  0  0  0
 20 42  1  0  0  0  0
 22 43  1  0  0  0  0
 24 44  1  0  0  0  0
 25 45  1  0  0  0  0
 30 46  1  0  0  0  0
 30 47  1  0  0  0  0
 30 48  1  0  0  0  0
M  END
> <ID>
58

> <IC50[uM]>
0.202

$$$$
