63
  -OEChem-05192314313D
 Structure written by MMmdl.
 44 48  0     0  0  0  0  0  0999 V2000
   92.5635   47.3408  266.4808 C   0  0  0  0  0  0  0  0  0  0  0  0
   91.6075   48.3335  266.6743 C   0  0  0  0  0  0  0  0  0  0  0  0
   91.9695   49.5319  267.2848 C   0  0  0  0  0  0  0  0  0  0  0  0
   93.2834   49.7950  267.6878 C   0  0  0  0  0  0  0  0  0  0  0  0
   93.8922   47.5381  266.9103 C   0  0  0  0  0  0  0  0  0  0  0  0
   94.2715   48.7791  267.5122 C   0  0  0  0  0  0  0  0  0  0  0  0
   95.5600   48.9654  267.9352 N   0  0  0  0  0  0  0  0  0  0  0  0
   96.4479   47.9572  267.7463 C   0  0  0  0  0  0  0  0  0  0  0  0
   96.0599   46.7469  267.1846 C   0  0  0  0  0  0  0  0  0  0  0  0
   94.7947   46.5302  266.7602 N   0  0  0  0  0  0  0  0  0  0  0  0
   93.5954   51.0976  268.3318 C   0  0  0  0  0  0  0  0  0  0  0  0
   90.2720   48.1244  266.3145 N   0  0  0  0  0  0  0  0  0  0  0  0
   94.5752   51.9450  267.7933 C   0  0  0  0  0  0  0  0  0  0  0  0
   94.8768   53.1820  268.3621 C   0  0  0  0  0  0  0  0  0  0  0  0
   92.9001   51.4735  269.4880 C   0  0  0  0  0  0  0  0  0  0  0  0
   93.1999   52.6985  270.0791 C   0  0  0  0  0  0  0  0  0  0  0  0
   94.1534   53.5481  269.5013 C   0  0  0  0  0  0  0  0  0  0  0  0
   94.3301   54.7275  270.1391 N   0  0  0  0  0  0  0  0  0  0  0  0
   93.3222   54.6345  271.4618 S   0  0  0  0  0  0  0  0  0  0  0  0
   92.6192   53.1453  271.2154 N   0  0  0  0  0  0  0  0  0  0  0  0
   89.7145   47.3441  265.2879 C   0  0  0  0  0  0  0  0  0  0  0  0
   88.4225   46.8014  265.3965 C   0  0  0  0  0  0  0  0  0  0  0  0
   87.8867   46.0933  264.3141 C   0  0  0  0  0  0  0  0  0  0  0  0
   88.6573   45.9409  263.1630 C   0  0  0  0  0  0  0  0  0  0  0  0
   89.9107   46.4413  263.0402 N   0  0  0  0  0  0  0  0  0  0  0  0
   90.4172   47.1261  264.0958 C   0  0  0  0  0  0  0  0  0  0  0  0
   87.4804   46.8886  266.9234 S   0  0  0  0  0  0  0  0  0  0  0  0
   88.3814   45.6524  268.0226 C   0  0  0  0  0  0  0  0  0  0  0  0
   86.1349   46.3742  266.6655 O   0  0  0  0  0  0  0  0  0  0  0  0
   87.6601   48.2354  267.4816 O   0  0  0  0  0  0  0  0  0  0  0  0
   92.2864   46.4146  265.9993 H   0  0  0  0  0  0  0  0  0  0  0  0
   91.2114   50.2826  267.4526 H   0  0  0  0  0  0  0  0  0  0  0  0
   97.4780   48.0982  268.0386 H   0  0  0  0  0  0  0  0  0  0  0  0
   96.7896   45.9571  267.0842 H   0  0  0  0  0  0  0  0  0  0  0  0
   89.6053   48.6095  266.8804 H   0  0  0  0  0  0  0  0  0  0  0  0
   95.1125   51.6296  266.9111 H   0  0  0  0  0  0  0  0  0  0  0  0
   95.6341   53.8274  267.9421 H   0  0  0  0  0  0  0  0  0  0  0  0
   92.1467   50.8266  269.9127 H   0  0  0  0  0  0  0  0  0  0  0  0
   86.8936   45.6726  264.3702 H   0  0  0  0  0  0  0  0  0  0  0  0
   88.2358   45.3985  262.3296 H   0  0  0  0  0  0  0  0  0  0  0  0
   91.4173   47.5253  264.0127 H   0  0  0  0  0  0  0  0  0  0  0  0
   87.8921   45.6115  269.0070 H   0  0  0  0  0  0  0  0  0  0  0  0
   88.3504   44.6566  267.5562 H   0  0  0  0  0  0  0  0  0  0  0  0
   89.4282   45.9669  268.1464 H   0  0  0  0  0  0  0  0  0  0  0  0
  1  2  2  0  0  0  0
  1  5  1  0  0  0  0
  2  3  1  0  0  0  0
  2 12  1  0  0  0  0
  3  4  2  0  0  0  0
  4  6  1  0  0  0  0
  4 11  1  0  0  0  0
  5  6  2  0  0  0  0
  5 10  1  0  0  0  0
  6  7  1  0  0  0  0
  7  8  2  0  0  0  0
  8  9  1  0  0  0  0
  9 10  2  0  0  0  0
 11 13  1  0  0  0  0
 11 15  2  0  0  0  0
 12 21  1  0  0  0  0
 13 14  2  0  0  0  0
 14 17  1  0  0  0  0
 15 16  1  0  0  0  0
 16 17  1  0  0  0  0
 16 20  2  0  0  0  0
 17 18  2  0  0  0  0
 18 19  1  0  0  0  0
 19 20  1  0  0  0  0
 21 22  2  0  0  0  0
 21 26  1  0  0  0  0
 22 23  1  0  0  0  0
 22 27  1  0  0  0  0
 23 24  2  0  0  0  0
 24 25  1  0  0  0  0
 25 26  2  0  0  0  0
 27 28  1  0  0  0  0
 27 29  2  0  0  0  0
 27 30  2  0  0  0  0
  1 31  1  0  0  0  0
  3 32  1  0  0  0  0
  8 33  1  0  0  0  0
  9 34  1  0  0  0  0
 12 35  1  0  0  0  0
 13 36  1  0  0  0  0
 14 37  1  0  0  0  0
 15 38  1  0  0  0  0
 23 39  1  0  0  0  0
 24 40  1  0  0  0  0
 26 41  1  0  0  0  0
 28 42  1  0  0  0  0
 28 43  1  0  0  0  0
 28 44  1  0  0  0  0
M  END
> <ID>
63

> <IC50[uM]>
0.53

$$$$
63
  -OEChem-05192314313D
 Structure written by MMmdl.
 44 48  0     0  0  0  0  0  0999 V2000
   92.5635   47.3408  266.4808 C   0  0  0  0  0  0  0  0  0  0  0  0
   91.6075   48.3335  266.6743 C   0  0  0  0  0  0  0  0  0  0  0  0
   91.9695   49.5319  267.2848 C   0  0  0  0  0  0  0  0  0  0  0  0
   93.2834   49.7950  267.6878 C   0  0  0  0  0  0  0  0  0  0  0  0
   93.8922   47.5381  266.9103 C   0  0  0  0  0  0  0  0  0  0  0  0
   94.2715   48.7791  267.5122 C   0  0  0  0  0  0  0  0  0  0  0  0
   95.5600   48.9654  267.9352 N   0  0  0  0  0  0  0  0  0  0  0  0
   96.4479   47.9572  267.7463 C   0  0  0  0  0  0  0  0  0  0  0  0
   96.0599   46.7469  267.1846 C   0  0  0  0  0  0  0  0  0  0  0  0
   94.7947   46.5302  266.7602 N   0  0  0  0  0  0  0  0  0  0  0  0
   93.5954   51.0976  268.3318 C   0  0  0  0  0  0  0  0  0  0  0  0
   90.2720   48.1244  266.3145 N   0  0  0  0  0  0  0  0  0  0  0  0
   94.5752   51.9450  267.7933 C   0  0  0  0  0  0  0  0  0  0  0  0
   94.8768   53.1820  268.3621 C   0  0  0  0  0  0  0  0  0  0  0  0
   92.9001   51.4735  269.4880 C   0  0  0  0  0  0  0  0  0  0  0  0
   93.1999   52.6985  270.0791 C   0  0  0  0  0  0  0  0  0  0  0  0
   94.1534   53.5481  269.5013 C   0  0  0  0  0  0  0  0  0  0  0  0
   94.3301   54.7275  270.1391 N   0  0  0  0  0  0  0  0  0  0  0  0
   93.3222   54.6345  271.4618 S   0  0  0  0  0  0  0  0  0  0  0  0
   92.6192   53.1453  271.2154 N   0  0  0  0  0  0  0  0  0  0  0  0
   89.7145   47.3441  265.2879 C   0  0  0  0  0  0  0  0  0  0  0  0
   88.4225   46.8014  265.3965 C   0  0  0  0  0  0  0  0  0  0  0  0
   87.8867   46.0933  264.3141 C   0  0  0  0  0  0  0  0  0  0  0  0
   88.6573   45.9409  263.1630 C   0  0  0  0  0  0  0  0  0  0  0  0
   89.9107   46.4413  263.0402 N   0  0  0  0  0  0  0  0  0  0  0  0
   90.4172   47.1261  264.0958 C   0  0  0  0  0  0  0  0  0  0  0  0
   87.4804   46.8886  266.9234 S   0  0  0  0  0  0  0  0  0  0  0  0
   88.3814   45.6524  268.0226 C   0  0  0  0  0  0  0  0  0  0  0  0
   86.1349   46.3742  266.6655 O   0  0  0  0  0  0  0  0  0  0  0  0
   87.6601   48.2354  267.4816 O   0  0  0  0  0  0  0  0  0  0  0  0
   92.2864   46.4146  265.9993 H   0  0  0  0  0  0  0  0  0  0  0  0
   91.2114   50.2826  267.4526 H   0  0  0  0  0  0  0  0  0  0  0  0
   97.4780   48.0982  268.0386 H   0  0  0  0  0  0  0  0  0  0  0  0
   96.7896   45.9571  267.0842 H   0  0  0  0  0  0  0  0  0  0  0  0
   94.5304   45.6577  266.3493 H   0  0  0  0  0  0  0  0  0  0  0  0
   95.1125   51.6296  266.9111 H   0  0  0  0  0  0  0  0  0  0  0  0
   95.6341   53.8274  267.9421 H   0  0  0  0  0  0  0  0  0  0  0  0
   92.1467   50.8266  269.9127 H   0  0  0  0  0  0  0  0  0  0  0  0
   86.8936   45.6726  264.3702 H   0  0  0  0  0  0  0  0  0  0  0  0
   88.2358   45.3985  262.3296 H   0  0  0  0  0  0  0  0  0  0  0  0
   91.4173   47.5253  264.0127 H   0  0  0  0  0  0  0  0  0  0  0  0
   87.8921   45.6115  269.0070 H   0  0  0  0  0  0  0  0  0  0  0  0
   88.3504   44.6566  267.5562 H   0  0  0  0  0  0  0  0  0  0  0  0
   89.4282   45.9669  268.1464 H   0  0  0  0  0  0  0  0  0  0  0  0
  1  2  1  0  0  0  0
  1  5  2  0  0  0  0
  2  3  1  0  0  0  0
  2 12  2  3  0  0  0
  3  4  2  0  0  0  0
  4  6  1  0  0  0  0
  4 11  1  0  0  0  0
  5  6  1  0  0  0  0
  5 10  1  0  0  0  0
  6  7  2  0  0  0  0
  7  8  1  0  0  0  0
  8  9  2  0  0  0  0
  9 10  1  0  0  0  0
 11 13  1  0  0  0  0
 11 15  2  0  0  0  0
 12 21  1  0  0  0  0
 13 14  2  0  0  0  0
 14 17  1  0  0  0  0
 15 16  1  0  0  0  0
 16 17  1  0  0  0  0
 16 20  2  0  0  0  0
 17 18  2  0  0  0  0
 18 19  1  0  0  0  0
 19 20  1  0  0  0  0
 21 22  2  0  0  0  0
 21 26  1  0  0  0  0
 22 23  1  0  0  0  0
 22 27  1  0  0  0  0
 23 24  2  0  0  0  0
 24 25  1  0  0  0  0
 25 26  2  0  0  0  0
 27 28  1  0  0  0  0
 27 29  2  0  0  0  0
 27 30  2  0  0  0  0
  1 31  1  0  0  0  0
  3 32  1  0  0  0  0
  8 33  1  0  0  0  0
  9 34  1  0  0  0  0
 10 35  1  0  0  0  0
 13 36  1  0  0  0  0
 14 37  1  0  0  0  0
 15 38  1  0  0  0  0
 23 39  1  0  0  0  0
 24 40  1  0  0  0  0
 26 41  1  0  0  0  0
 28 42  1  0  0  0  0
 28 43  1  0  0  0  0
 28 44  1  0  0  0  0
M  END
> <ID>
63

> <IC50[uM]>
0.53

$$$$
63
  -OEChem-05192314313D
 Structure written by MMmdl.
 44 48  0     0  0  0  0  0  0999 V2000
   92.5635   47.3408  266.4808 C   0  0  0  0  0  0  0  0  0  0  0  0
   91.6075   48.3335  266.6743 C   0  0  0  0  0  0  0  0  0  0  0  0
   91.9695   49.5319  267.2848 C   0  0  0  0  0  0  0  0  0  0  0  0
   93.2834   49.7950  267.6878 C   0  0  0  0  0  0  0  0  0  0  0  0
   93.8922   47.5381  266.9103 C   0  0  0  0  0  0  0  0  0  0  0  0
   94.2715   48.7791  267.5122 C   0  0  0  0  0  0  0  0  0  0  0  0
   95.5600   48.9654  267.9352 N   0  0  0  0  0  0  0  0  0  0  0  0
   96.4479   47.9572  267.7463 C   0  0  0  0  0  0  0  0  0  0  0  0
   96.0599   46.7469  267.1846 C   0  0  0  0  0  0  0  0  0  0  0  0
   94.7947   46.5302  266.7602 N   0  0  0  0  0  0  0  0  0  0  0  0
   93.5954   51.0976  268.3318 C   0  0  0  0  0  0  0  0  0  0  0  0
   90.2720   48.1244  266.3145 N   0  0  0  0  0  0  0  0  0  0  0  0
   94.5752   51.9450  267.7933 C   0  0  0  0  0  0  0  0  0  0  0  0
   94.8768   53.1820  268.3621 C   0  0  0  0  0  0  0  0  0  0  0  0
   92.9001   51.4735  269.4880 C   0  0  0  0  0  0  0  0  0  0  0  0
   93.1999   52.6985  270.0791 C   0  0  0  0  0  0  0  0  0  0  0  0
   94.1534   53.5481  269.5013 C   0  0  0  0  0  0  0  0  0  0  0  0
   94.3301   54.7275  270.1391 N   0  0  0  0  0  0  0  0  0  0  0  0
   93.3222   54.6345  271.4618 S   0  0  0  0  0  0  0  0  0  0  0  0
   92.6192   53.1453  271.2154 N   0  0  0  0  0  0  0  0  0  0  0  0
   89.7145   47.3441  265.2879 C   0  0  0  0  0  0  0  0  0  0  0  0
   88.4225   46.8014  265.3965 C   0  0  0  0  0  0  0  0  0  0  0  0
   87.8867   46.0933  264.3141 C   0  0  0  0  0  0  0  0  0  0  0  0
   88.6573   45.9409  263.1630 C   0  0  0  0  0  0  0  0  0  0  0  0
   89.9107   46.4413  263.0402 N   0  0  0  0  0  0  0  0  0  0  0  0
   90.4172   47.1261  264.0958 C   0  0  0  0  0  0  0  0  0  0  0  0
   87.4804   46.8886  266.9234 S   0  0  0  0  0  0  0  0  0  0  0  0
   88.3814   45.6524  268.0226 C   0  0  0  0  0  0  0  0  0  0  0  0
   86.1349   46.3742  266.6655 O   0  0  0  0  0  0  0  0  0  0  0  0
   87.6601   48.2354  267.4816 O   0  0  0  0  0  0  0  0  0  0  0  0
   92.1947   46.4422  266.9970 H   0  0  0  0  0  0  0  0  0  0  0  0
   92.6064   47.1502  265.3983 H   0  0  0  0  0  0  0  0  0  0  0  0
   91.2114   50.2826  267.4526 H   0  0  0  0  0  0  0  0  0  0  0  0
   97.4780   48.0982  268.0386 H   0  0  0  0  0  0  0  0  0  0  0  0
   96.7896   45.9571  267.0842 H   0  0  0  0  0  0  0  0  0  0  0  0
   95.1125   51.6296  266.9111 H   0  0  0  0  0  0  0  0  0  0  0  0
   95.6341   53.8274  267.9421 H   0  0  0  0  0  0  0  0  0  0  0  0
   92.1467   50.8266  269.9127 H   0  0  0  0  0  0  0  0  0  0  0  0
   86.8936   45.6726  264.3702 H   0  0  0  0  0  0  0  0  0  0  0  0
   88.2358   45.3985  262.3296 H   0  0  0  0  0  0  0  0  0  0  0  0
   91.4173   47.5253  264.0127 H   0  0  0  0  0  0  0  0  0  0  0  0
   87.8921   45.6115  269.0070 H   0  0  0  0  0  0  0  0  0  0  0  0
   88.3504   44.6566  267.5562 H   0  0  0  0  0  0  0  0  0  0  0  0
   89.4282   45.9669  268.1464 H   0  0  0  0  0  0  0  0  0  0  0  0
  1  2  1  0  0  0  0
  1  5  1  0  0  0  0
  2  3  1  0  0  0  0
  2 12  2  3  0  0  0
  3  4  2  0  0  0  0
  4  6  1  0  0  0  0
  4 11  1  0  0  0  0
  5  6  2  0  0  0  0
  5 10  1  0  0  0  0
  6  7  1  0  0  0  0
  7  8  2  0  0  0  0
  8  9  1  0  0  0  0
  9 10  2  0  0  0  0
 11 13  1  0  0  0  0
 11 15  2  0  0  0  0
 12 21  1  0  0  0  0
 13 14  2  0  0  0  0
 14 17  1  0  0  0  0
 15 16  1  0  0  0  0
 16 17  1  0  0  0  0
 16 20  2  0  0  0  0
 17 18  2  0  0  0  0
 18 19  1  0  0  0  0
 19 20  1  0  0  0  0
 21 22  2  0  0  0  0
 21 26  1  0  0  0  0
 22 23  1  0  0  0  0
 22 27  1  0  0  0  0
 23 24  2  0  0  0  0
 24 25  1  0  0  0  0
 25 26  2  0  0  0  0
 27 28  1  0  0  0  0
 27 29  2  0  0  0  0
 27 30  2  0  0  0  0
  1 31  1  0  0  0  0
  1 32  1  0  0  0  0
  3 33  1  0  0  0  0
  8 34  1  0  0  0  0
  9 35  1  0  0  0  0
 13 36  1  0  0  0  0
 14 37  1  0  0  0  0
 15 38  1  0  0  0  0
 23 39  1  0  0  0  0
 24 40  1  0  0  0  0
 26 41  1  0  0  0  0
 28 42  1  0  0  0  0
 28 43  1  0  0  0  0
 28 44  1  0  0  0  0
M  END
> <ID>
63

> <IC50[uM]>
0.53

$$$$
63
  -OEChem-05192314313D
 Structure written by MMmdl.
 44 48  0     0  0  0  0  0  0999 V2000
   92.5635   47.3408  266.4808 C   0  0  0  0  0  0  0  0  0  0  0  0
   91.6075   48.3335  266.6743 C   0  0  0  0  0  0  0  0  0  0  0  0
   91.9695   49.5319  267.2848 C   0  0  0  0  0  0  0  0  0  0  0  0
   93.2834   49.7950  267.6878 C   0  0  0  0  0  0  0  0  0  0  0  0
   93.8922   47.5381  266.9103 C   0  0  0  0  0  0  0  0  0  0  0  0
   94.2715   48.7791  267.5122 C   0  0  0  0  0  0  0  0  0  0  0  0
   95.5600   48.9654  267.9352 N   0  0  0  0  0  0  0  0  0  0  0  0
   96.4479   47.9572  267.7463 C   0  0  0  0  0  0  0  0  0  0  0  0
   96.0599   46.7469  267.1846 C   0  0  0  0  0  0  0  0  0  0  0  0
   94.7947   46.5302  266.7602 N   0  0  0  0  0  0  0  0  0  0  0  0
   93.5954   51.0976  268.3318 C   0  0  0  0  0  0  0  0  0  0  0  0
   90.2720   48.1244  266.3145 N   0  0  0  0  0  0  0  0  0  0  0  0
   94.5752   51.9450  267.7933 C   0  0  0  0  0  0  0  0  0  0  0  0
   94.8768   53.1820  268.3621 C   0  0  0  0  0  0  0  0  0  0  0  0
   92.9001   51.4735  269.4880 C   0  0  0  0  0  0  0  0  0  0  0  0
   93.1999   52.6985  270.0791 C   0  0  0  0  0  0  0  0  0  0  0  0
   94.1534   53.5481  269.5013 C   0  0  0  0  0  0  0  0  0  0  0  0
   94.3301   54.7275  270.1391 N   0  0  0  0  0  0  0  0  0  0  0  0
   93.3222   54.6345  271.4618 S   0  0  0  0  0  0  0  0  0  0  0  0
   92.6192   53.1453  271.2154 N   0  0  0  0  0  0  0  0  0  0  0  0
   89.7145   47.3441  265.2879 C   0  0  0  0  0  0  0  0  0  0  0  0
   88.4225   46.8014  265.3965 C   0  0  0  0  0  0  0  0  0  0  0  0
   87.8867   46.0933  264.3141 C   0  0  0  0  0  0  0  0  0  0  0  0
   88.6573   45.9409  263.1630 C   0  0  0  0  0  0  0  0  0  0  0  0
   89.9107   46.4413  263.0402 N   0  0  0  0  0  0  0  0  0  0  0  0
   90.4172   47.1261  264.0958 C   0  0  0  0  0  0  0  0  0  0  0  0
   87.4804   46.8886  266.9234 S   0  0  0  0  0  0  0  0  0  0  0  0
   88.3814   45.6524  268.0226 C   0  0  0  0  0  0  0  0  0  0  0  0
   86.1349   46.3742  266.6655 O   0  0  0  0  0  0  0  0  0  0  0  0
   87.6601   48.2354  267.4816 O   0  0  0  0  0  0  0  0  0  0  0  0
   92.2864   46.4146  265.9993 H   0  0  0  0  0  0  0  0  0  0  0  0
   91.6991   50.3305  266.5783 H   0  0  0  0  0  0  0  0  0  0  0  0
   91.3482   49.6161  268.1886 H   0  0  0  0  0  0  0  0  0  0  0  0
   97.4780   48.0982  268.0386 H   0  0  0  0  0  0  0  0  0  0  0  0
   96.7896   45.9571  267.0842 H   0  0  0  0  0  0  0  0  0  0  0  0
   95.1125   51.6296  266.9111 H   0  0  0  0  0  0  0  0  0  0  0  0
   95.6341   53.8274  267.9421 H   0  0  0  0  0  0  0  0  0  0  0  0
   92.1467   50.8266  269.9127 H   0  0  0  0  0  0  0  0  0  0  0  0
   86.8936   45.6726  264.3702 H   0  0  0  0  0  0  0  0  0  0  0  0
   88.2358   45.3985  262.3296 H   0  0  0  0  0  0  0  0  0  0  0  0
   91.4173   47.5253  264.0127 H   0  0  0  0  0  0  0  0  0  0  0  0
   87.8921   45.6115  269.0070 H   0  0  0  0  0  0  0  0  0  0  0  0
   88.3504   44.6566  267.5562 H   0  0  0  0  0  0  0  0  0  0  0  0
   89.4282   45.9669  268.1464 H   0  0  0  0  0  0  0  0  0  0  0  0
  1  2  1  0  0  0  0
  1  5  2  0  0  0  0
  2  3  1  0  0  0  0
  2 12  2  3  0  0  0
  3  4  1  0  0  0  0
  4  6  2  0  0  0  0
  4 11  1  0  0  0  0
  5  6  1  0  0  0  0
  5 10  1  0  0  0  0
  6  7  1  0  0  0  0
  7  8  2  0  0  0  0
  8  9  1  0  0  0  0
  9 10  2  0  0  0  0
 11 13  1  0  0  0  0
 11 15  2  0  0  0  0
 12 21  1  0  0  0  0
 13 14  2  0  0  0  0
 14 17  1  0  0  0  0
 15 16  1  0  0  0  0
 16 17  1  0  0  0  0
 16 20  2  0  0  0  0
 17 18  2  0  0  0  0
 18 19  1  0  0  0  0
 19 20  1  0  0  0  0
 21 22  2  0  0  0  0
 21 26  1  0  0  0  0
 22 23  1  0  0  0  0
 22 27  1  0  0  0  0
 23 24  2  0  0  0  0
 24 25  1  0  0  0  0
 25 26  2  0  0  0  0
 27 28  1  0  0  0  0
 27 29  2  0  0  0  0
 27 30  2  0  0  0  0
  1 31  1  0  0  0  0
  3 32  1  0  0  0  0
  3 33  1  0  0  0  0
  8 34  1  0  0  0  0
  9 35  1  0  0  0  0
 13 36  1  0  0  0  0
 14 37  1  0  0  0  0
 15 38  1  0  0  0  0
 23 39  1  0  0  0  0
 24 40  1  0  0  0  0
 26 41  1  0  0  0  0
 28 42  1  0  0  0  0
 28 43  1  0  0  0  0
 28 44  1  0  0  0  0
M  END
> <ID>
63

> <IC50[uM]>
0.53

$$$$
63
  -OEChem-05192314313D
 Structure written by MMmdl.
 44 48  0     1  0  0  0  0  0999 V2000
   92.5635   47.3408  266.4808 C   0  0  0  0  0  0  0  0  0  0  0  0
   91.6075   48.3335  266.6743 C   0  0  0  0  0  0  0  0  0  0  0  0
   91.9695   49.5319  267.2848 C   0  0  0  0  0  0  0  0  0  0  0  0
   93.2834   49.7950  267.6878 C   0  0  0  0  0  0  0  0  0  0  0  0
   93.8922   47.5381  266.9103 C   0  0  0  0  0  0  0  0  0  0  0  0
   94.2715   48.7791  267.5122 C   0  0  0  0  0  0  0  0  0  0  0  0
   95.5600   48.9654  267.9352 N   0  0  0  0  0  0  0  0  0  0  0  0
   96.4479   47.9572  267.7463 C   0  0  0  0  0  0  0  0  0  0  0  0
   96.0599   46.7469  267.1846 C   0  0  0  0  0  0  0  0  0  0  0  0
   94.7947   46.5302  266.7602 N   0  0  0  0  0  0  0  0  0  0  0  0
   93.5954   51.0976  268.3318 C   0  0  0  0  0  0  0  0  0  0  0  0
   90.2720   48.1244  266.3145 N   0  0  0  0  0  0  0  0  0  0  0  0
   94.5752   51.9450  267.7933 C   0  0  0  0  0  0  0  0  0  0  0  0
   94.8768   53.1820  268.3621 C   0  0  0  0  0  0  0  0  0  0  0  0
   92.9001   51.4735  269.4880 C   0  0  0  0  0  0  0  0  0  0  0  0
   93.1999   52.6985  270.0791 C   0  0  0  0  0  0  0  0  0  0  0  0
   94.1534   53.5481  269.5013 C   0  0  0  0  0  0  0  0  0  0  0  0
   94.3301   54.7275  270.1391 N   0  0  0  0  0  0  0  0  0  0  0  0
   93.3222   54.6345  271.4618 S   0  0  0  0  0  0  0  0  0  0  0  0
   92.6192   53.1453  271.2154 N   0  0  0  0  0  0  0  0  0  0  0  0
   89.7145   47.3441  265.2879 C   0  0  0  0  0  0  0  0  0  0  0  0
   88.4225   46.8014  265.3965 C   0  0  3  0  0  0  0  0  0  0  0  0
   87.8867   46.0933  264.3141 C   0  0  0  0  0  0  0  0  0  0  0  0
   88.6573   45.9409  263.1630 C   0  0  0  0  0  0  0  0  0  0  0  0
   89.9107   46.4413  263.0402 N   0  0  0  0  0  0  0  0  0  0  0  0
   90.4172   47.1261  264.0958 C   0  0  0  0  0  0  0  0  0  0  0  0
   87.4804   46.8886  266.9234 S   0  0  0  0  0  0  0  0  0  0  0  0
   88.3814   45.6524  268.0226 C   0  0  0  0  0  0  0  0  0  0  0  0
   86.1349   46.3742  266.6655 O   0  0  0  0  0  0  0  0  0  0  0  0
   87.6601   48.2354  267.4816 O   0  0  0  0  0  0  0  0  0  0  0  0
   92.2864   46.4146  265.9993 H   0  0  0  0  0  0  0  0  0  0  0  0
   91.2114   50.2826  267.4526 H   0  0  0  0  0  0  0  0  0  0  0  0
   97.4780   48.0982  268.0386 H   0  0  0  0  0  0  0  0  0  0  0  0
   96.7896   45.9571  267.0842 H   0  0  0  0  0  0  0  0  0  0  0  0
   95.1125   51.6296  266.9111 H   0  0  0  0  0  0  0  0  0  0  0  0
   95.6341   53.8274  267.9421 H   0  0  0  0  0  0  0  0  0  0  0  0
   92.1467   50.8266  269.9127 H   0  0  0  0  0  0  0  0  0  0  0  0
   87.9706   47.7390  265.0404 H   0  0  0  0  0  0  0  0  0  0  0  0
   86.8936   45.6726  264.3702 H   0  0  0  0  0  0  0  0  0  0  0  0
   88.2358   45.3985  262.3296 H   0  0  0  0  0  0  0  0  0  0  0  0
   91.4173   47.5253  264.0127 H   0  0  0  0  0  0  0  0  0  0  0  0
   87.8921   45.6115  269.0070 H   0  0  0  0  0  0  0  0  0  0  0  0
   88.3504   44.6566  267.5562 H   0  0  0  0  0  0  0  0  0  0  0  0
   89.4282   45.9669  268.1464 H   0  0  0  0  0  0  0  0  0  0  0  0
  1  2  2  0  0  0  0
  1  5  1  0  0  0  0
  2  3  1  0  0  0  0
  2 12  1  0  0  0  0
  3  4  2  0  0  0  0
  4  6  1  0  0  0  0
  4 11  1  0  0  0  0
  5  6  2  0  0  0  0
  5 10  1  0  0  0  0
  6  7  1  0  0  0  0
  7  8  2  0  0  0  0
  8  9  1  0  0  0  0
  9 10  2  0  0  0  0
 11 13  1  0  0  0  0
 11 15  2  0  0  0  0
 12 21  2  0  0  0  0
 13 14  2  0  0  0  0
 14 17  1  0  0  0  0
 15 16  1  0  0  0  0
 16 17  1  0  0  0  0
 16 20  2  0  0  0  0
 17 18  2  0  0  0  0
 18 19  1  0  0  0  0
 19 20  1  0  0  0  0
 21 22  1  0  0  0  0
 21 26  1  0  0  0  0
 22 23  1  0  0  0  0
 22 27  1  0  0  0  0
 23 24  2  0  0  0  0
 24 25  1  0  0  0  0
 25 26  2  0  0  0  0
 27 28  1  0  0  0  0
 27 29  2  0  0  0  0
 27 30  2  0  0  0  0
  1 31  1  0  0  0  0
  3 32  1  0  0  0  0
  8 33  1  0  0  0  0
  9 34  1  0  0  0  0
 13 35  1  0  0  0  0
 14 36  1  0  0  0  0
 15 37  1  0  0  0  0
 22 38  1  0  0  0  0
 23 39  1  0  0  0  0
 24 40  1  0  0  0  0
 26 41  1  0  0  0  0
 28 42  1  0  0  0  0
 28 43  1  0  0  0  0
 28 44  1  0  0  0  0
M  END
> <ID>
63

> <IC50[uM]>
0.53

$$$$
63
  -OEChem-05192314313D
 Structure written by MMmdl.
 44 48  0     0  0  0  0  0  0999 V2000
   92.5635   47.3408  266.4808 C   0  0  0  0  0  0  0  0  0  0  0  0
   91.6075   48.3335  266.6743 C   0  0  0  0  0  0  0  0  0  0  0  0
   91.9695   49.5319  267.2848 C   0  0  0  0  0  0  0  0  0  0  0  0
   93.2834   49.7950  267.6878 C   0  0  0  0  0  0  0  0  0  0  0  0
   93.8922   47.5381  266.9103 C   0  0  0  0  0  0  0  0  0  0  0  0
   94.2715   48.7791  267.5122 C   0  0  0  0  0  0  0  0  0  0  0  0
   95.5600   48.9654  267.9352 N   0  0  0  0  0  0  0  0  0  0  0  0
   96.4479   47.9572  267.7463 C   0  0  0  0  0  0  0  0  0  0  0  0
   96.0599   46.7469  267.1846 C   0  0  0  0  0  0  0  0  0  0  0  0
   94.7947   46.5302  266.7602 N   0  0  0  0  0  0  0  0  0  0  0  0
   93.5954   51.0976  268.3318 C   0  0  0  0  0  0  0  0  0  0  0  0
   90.2720   48.1244  266.3145 N   0  0  0  0  0  0  0  0  0  0  0  0
   94.5752   51.9450  267.7933 C   0  0  0  0  0  0  0  0  0  0  0  0
   94.8768   53.1820  268.3621 C   0  0  0  0  0  0  0  0  0  0  0  0
   92.9001   51.4735  269.4880 C   0  0  0  0  0  0  0  0  0  0  0  0
   93.1999   52.6985  270.0791 C   0  0  0  0  0  0  0  0  0  0  0  0
   94.1534   53.5481  269.5013 C   0  0  0  0  0  0  0  0  0  0  0  0
   94.3301   54.7275  270.1391 N   0  0  0  0  0  0  0  0  0  0  0  0
   93.3222   54.6345  271.4618 S   0  0  0  0  0  0  0  0  0  0  0  0
   92.6192   53.1453  271.2154 N   0  0  0  0  0  0  0  0  0  0  0  0
   89.7145   47.3441  265.2879 C   0  0  0  0  0  0  0  0  0  0  0  0
   88.4225   46.8014  265.3965 C   0  0  0  0  0  0  0  0  0  0  0  0
   87.8867   46.0933  264.3141 C   0  0  0  0  0  0  0  0  0  0  0  0
   88.6573   45.9409  263.1630 C   0  0  0  0  0  0  0  0  0  0  0  0
   89.9107   46.4413  263.0402 N   0  0  0  0  0  0  0  0  0  0  0  0
   90.4172   47.1261  264.0958 C   0  0  0  0  0  0  0  0  0  0  0  0
   87.4804   46.8886  266.9234 S   0  0  0  0  0  0  0  0  0  0  0  0
   88.3814   45.6524  268.0226 C   0  0  0  0  0  0  0  0  0  0  0  0
   86.1349   46.3742  266.6655 O   0  0  0  0  0  0  0  0  0  0  0  0
   87.6601   48.2354  267.4816 O   0  0  0  0  0  0  0  0  0  0  0  0
   92.2864   46.4146  265.9993 H   0  0  0  0  0  0  0  0  0  0  0  0
   91.2114   50.2826  267.4526 H   0  0  0  0  0  0  0  0  0  0  0  0
   97.4780   48.0982  268.0386 H   0  0  0  0  0  0  0  0  0  0  0  0
   96.7896   45.9571  267.0842 H   0  0  0  0  0  0  0  0  0  0  0  0
   95.1125   51.6296  266.9111 H   0  0  0  0  0  0  0  0  0  0  0  0
   95.6341   53.8274  267.9421 H   0  0  0  0  0  0  0  0  0  0  0  0
   92.1467   50.8266  269.9127 H   0  0  0  0  0  0  0  0  0  0  0  0
   86.8936   45.6726  264.3702 H   0  0  0  0  0  0  0  0  0  0  0  0
   88.7470   44.8567  263.0002 H   0  0  0  0  0  0  0  0  0  0  0  0
   88.0719   46.3872  262.3456 H   0  0  0  0  0  0  0  0  0  0  0  0
   91.4173   47.5253  264.0127 H   0  0  0  0  0  0  0  0  0  0  0  0
   87.8921   45.6115  269.0070 H   0  0  0  0  0  0  0  0  0  0  0  0
   88.3504   44.6566  267.5562 H   0  0  0  0  0  0  0  0  0  0  0  0
   89.4282   45.9669  268.1464 H   0  0  0  0  0  0  0  0  0  0  0  0
  1  2  2  0  0  0  0
  1  5  1  0  0  0  0
  2  3  1  0  0  0  0
  2 12  1  0  0  0  0
  3  4  2  0  0  0  0
  4  6  1  0  0  0  0
  4 11  1  0  0  0  0
  5  6  2  0  0  0  0
  5 10  1  0  0  0  0
  6  7  1  0  0  0  0
  7  8  2  0  0  0  0
  8  9  1  0  0  0  0
  9 10  2  0  0  0  0
 11 13  1  0  0  0  0
 11 15  2  0  0  0  0
 12 21  2  0  0  0  0
 13 14  2  0  0  0  0
 14 17  1  0  0  0  0
 15 16  1  0  0  0  0
 16 17  1  0  0  0  0
 16 20  2  0  0  0  0
 17 18  2  0  0  0  0
 18 19  1  0  0  0  0
 19 20  1  0  0  0  0
 21 22  1  0  0  0  0
 21 26  1  0  0  0  0
 22 23  2  0  0  0  0
 22 27  1  0  0  0  0
 23 24  1  0  0  0  0
 24 25  1  0  0  0  0
 25 26  2  0  0  0  0
 27 28  1  0  0  0  0
 27 29  2  0  0  0  0
 27 30  2  0  0  0  0
  1 31  1  0  0  0  0
  3 32  1  0  0  0  0
  8 33  1  0  0  0  0
  9 34  1  0  0  0  0
 13 35  1  0  0  0  0
 14 36  1  0  0  0  0
 15 37  1  0  0  0  0
 23 38  1  0  0  0  0
 24 39  1  0  0  0  0
 24 40  1  0  0  0  0
 26 41  1  0  0  0  0
 28 42  1  0  0  0  0
 28 43  1  0  0  0  0
 28 44  1  0  0  0  0
M  END
> <ID>
63

> <IC50[uM]>
0.53

$$$$
63
  -OEChem-05192314313D
 Structure written by MMmdl.
 44 48  0     0  0  0  0  0  0999 V2000
   92.5635   47.3408  266.4808 C   0  0  0  0  0  0  0  0  0  0  0  0
   91.6075   48.3335  266.6743 C   0  0  0  0  0  0  0  0  0  0  0  0
   91.9695   49.5319  267.2848 C   0  0  0  0  0  0  0  0  0  0  0  0
   93.2834   49.7950  267.6878 C   0  0  0  0  0  0  0  0  0  0  0  0
   93.8922   47.5381  266.9103 C   0  0  0  0  0  0  0  0  0  0  0  0
   94.2715   48.7791  267.5122 C   0  0  0  0  0  0  0  0  0  0  0  0
   95.5600   48.9654  267.9352 N   0  0  0  0  0  0  0  0  0  0  0  0
   96.4479   47.9572  267.7463 C   0  0  0  0  0  0  0  0  0  0  0  0
   96.0599   46.7469  267.1846 C   0  0  0  0  0  0  0  0  0  0  0  0
   94.7947   46.5302  266.7602 N   0  0  0  0  0  0  0  0  0  0  0  0
   93.5954   51.0976  268.3318 C   0  0  0  0  0  0  0  0  0  0  0  0
   90.2720   48.1244  266.3145 N   0  0  0  0  0  0  0  0  0  0  0  0
   94.5752   51.9450  267.7933 C   0  0  0  0  0  0  0  0  0  0  0  0
   94.8768   53.1820  268.3621 C   0  0  0  0  0  0  0  0  0  0  0  0
   92.9001   51.4735  269.4880 C   0  0  0  0  0  0  0  0  0  0  0  0
   93.1999   52.6985  270.0791 C   0  0  0  0  0  0  0  0  0  0  0  0
   94.1534   53.5481  269.5013 C   0  0  0  0  0  0  0  0  0  0  0  0
   94.3301   54.7275  270.1391 N   0  0  0  0  0  0  0  0  0  0  0  0
   93.3222   54.6345  271.4618 S   0  0  0  0  0  0  0  0  0  0  0  0
   92.6192   53.1453  271.2154 N   0  0  0  0  0  0  0  0  0  0  0  0
   89.7145   47.3441  265.2879 C   0  0  0  0  0  0  0  0  0  0  0  0
   88.4225   46.8014  265.3965 C   0  0  0  0  0  0  0  0  0  0  0  0
   87.8867   46.0933  264.3141 C   0  0  0  0  0  0  0  0  0  0  0  0
   88.6573   45.9409  263.1630 C   0  0  0  0  0  0  0  0  0  0  0  0
   89.9107   46.4413  263.0402 N   0  0  0  0  0  0  0  0  0  0  0  0
   90.4172   47.1261  264.0958 C   0  0  0  0  0  0  0  0  0  0  0  0
   87.4804   46.8886  266.9234 S   0  0  0  0  0  0  0  0  0  0  0  0
   88.3814   45.6524  268.0226 C   0  0  0  0  0  0  0  0  0  0  0  0
   86.1349   46.3742  266.6655 O   0  0  0  0  0  0  0  0  0  0  0  0
   87.6601   48.2354  267.4816 O   0  0  0  0  0  0  0  0  0  0  0  0
   92.2864   46.4146  265.9993 H   0  0  0  0  0  0  0  0  0  0  0  0
   91.2114   50.2826  267.4526 H   0  0  0  0  0  0  0  0  0  0  0  0
   97.4780   48.0982  268.0386 H   0  0  0  0  0  0  0  0  0  0  0  0
   96.7896   45.9571  267.0842 H   0  0  0  0  0  0  0  0  0  0  0  0
   95.1125   51.6296  266.9111 H   0  0  0  0  0  0  0  0  0  0  0  0
   95.6341   53.8274  267.9421 H   0  0  0  0  0  0  0  0  0  0  0  0
   92.1467   50.8266  269.9127 H   0  0  0  0  0  0  0  0  0  0  0  0
   86.8936   45.6726  264.3702 H   0  0  0  0  0  0  0  0  0  0  0  0
   88.2358   45.3985  262.3296 H   0  0  0  0  0  0  0  0  0  0  0  0
   90.6726   48.1245  263.7111 H   0  0  0  0  0  0  0  0  0  0  0  0
   91.3380   46.5971  264.3827 H   0  0  0  0  0  0  0  0  0  0  0  0
   87.8921   45.6115  269.0070 H   0  0  0  0  0  0  0  0  0  0  0  0
   88.3504   44.6566  267.5562 H   0  0  0  0  0  0  0  0  0  0  0  0
   89.4282   45.9669  268.1464 H   0  0  0  0  0  0  0  0  0  0  0  0
  1  2  2  0  0  0  0
  1  5  1  0  0  0  0
  2  3  1  0  0  0  0
  2 12  1  0  0  0  0
  3  4  2  0  0  0  0
  4  6  1  0  0  0  0
  4 11  1  0  0  0  0
  5  6  2  0  0  0  0
  5 10  1  0  0  0  0
  6  7  1  0  0  0  0
  7  8  2  0  0  0  0
  8  9  1  0  0  0  0
  9 10  2  0  0  0  0
 11 13  1  0  0  0  0
 11 15  2  0  0  0  0
 12 21  2  0  0  0  0
 13 14  2  0  0  0  0
 14 17  1  0  0  0  0
 15 16  1  0  0  0  0
 16 17  1  0  0  0  0
 16 20  2  0  0  0  0
 17 18  2  0  0  0  0
 18 19  1  0  0  0  0
 19 20  1  0  0  0  0
 21 22  1  0  0  0  0
 21 26  1  0  0  0  0
 22 23  2  0  0  0  0
 22 27  1  0  0  0  0
 23 24  1  0  0  0  0
 24 25  2  0  0  0  0
 25 26  1  0  0  0  0
 27 28  1  0  0  0  0
 27 29  2  0  0  0  0
 27 30  2  0  0  0  0
  1 31  1  0  0  0  0
  3 32  1  0  0  0  0
  8 33  1  0  0  0  0
  9 34  1  0  0  0  0
 13 35  1  0  0  0  0
 14 36  1  0  0  0  0
 15 37  1  0  0  0  0
 23 38  1  0  0  0  0
 24 39  1  0  0  0  0
 26 40  1  0  0  0  0
 26 41  1  0  0  0  0
 28 42  1  0  0  0  0
 28 43  1  0  0  0  0
 28 44  1  0  0  0  0
M  END
> <ID>
63

> <IC50[uM]>
0.53

$$$$
63
  -OEChem-05192314313D
 Structure written by MMmdl.
 44 48  0     1  0  0  0  0  0999 V2000
   92.5635   47.3408  266.4808 C   0  0  0  0  0  0  0  0  0  0  0  0
   91.6075   48.3335  266.6743 C   0  0  0  0  0  0  0  0  0  0  0  0
   91.9695   49.5319  267.2848 C   0  0  0  0  0  0  0  0  0  0  0  0
   93.2834   49.7950  267.6878 C   0  0  0  0  0  0  0  0  0  0  0  0
   93.8922   47.5381  266.9103 C   0  0  0  0  0  0  0  0  0  0  0  0
   94.2715   48.7791  267.5122 C   0  0  3  0  0  0  0  0  0  0  0  0
   95.5600   48.9654  267.9352 N   0  0  0  0  0  0  0  0  0  0  0  0
   96.4479   47.9572  267.7463 C   0  0  0  0  0  0  0  0  0  0  0  0
   96.0599   46.7469  267.1846 C   0  0  0  0  0  0  0  0  0  0  0  0
   94.7947   46.5302  266.7602 N   0  0  0  0  0  0  0  0  0  0  0  0
   93.5954   51.0976  268.3318 C   0  0  0  0  0  0  0  0  0  0  0  0
   90.2720   48.1244  266.3145 N   0  0  0  0  0  0  0  0  0  0  0  0
   94.5752   51.9450  267.7933 C   0  0  0  0  0  0  0  0  0  0  0  0
   94.8768   53.1820  268.3621 C   0  0  0  0  0  0  0  0  0  0  0  0
   92.9001   51.4735  269.4880 C   0  0  0  0  0  0  0  0  0  0  0  0
   93.1999   52.6985  270.0791 C   0  0  0  0  0  0  0  0  0  0  0  0
   94.1534   53.5481  269.5013 C   0  0  0  0  0  0  0  0  0  0  0  0
   94.3301   54.7275  270.1391 N   0  0  0  0  0  0  0  0  0  0  0  0
   93.3222   54.6345  271.4618 S   0  0  0  0  0  0  0  0  0  0  0  0
   92.6192   53.1453  271.2154 N   0  0  0  0  0  0  0  0  0  0  0  0
   89.7145   47.3441  265.2879 C   0  0  0  0  0  0  0  0  0  0  0  0
   88.4225   46.8014  265.3965 C   0  0  0  0  0  0  0  0  0  0  0  0
   87.8867   46.0933  264.3141 C   0  0  0  0  0  0  0  0  0  0  0  0
   88.6573   45.9409  263.1630 C   0  0  0  0  0  0  0  0  0  0  0  0
   89.9107   46.4413  263.0402 N   0  0  0  0  0  0  0  0  0  0  0  0
   90.4172   47.1261  264.0958 C   0  0  0  0  0  0  0  0  0  0  0  0
   87.4804   46.8886  266.9234 S   0  0  0  0  0  0  0  0  0  0  0  0
   88.3814   45.6524  268.0226 C   0  0  0  0  0  0  0  0  0  0  0  0
   86.1349   46.3742  266.6655 O   0  0  0  0  0  0  0  0  0  0  0  0
   87.6601   48.2354  267.4816 O   0  0  0  0  0  0  0  0  0  0  0  0
   92.2864   46.4146  265.9993 H   0  0  0  0  0  0  0  0  0  0  0  0
   91.2114   50.2826  267.4526 H   0  0  0  0  0  0  0  0  0  0  0  0
   94.5282   49.1887  266.5241 H   0  0  0  0  0  0  0  0  0  0  0  0
   97.4780   48.0982  268.0386 H   0  0  0  0  0  0  0  0  0  0  0  0
   96.7896   45.9571  267.0842 H   0  0  0  0  0  0  0  0  0  0  0  0
   95.1125   51.6296  266.9111 H   0  0  0  0  0  0  0  0  0  0  0  0
   95.6341   53.8274  267.9421 H   0  0  0  0  0  0  0  0  0  0  0  0
   92.1467   50.8266  269.9127 H   0  0  0  0  0  0  0  0  0  0  0  0
   86.8936   45.6726  264.3702 H   0  0  0  0  0  0  0  0  0  0  0  0
   88.2358   45.3985  262.3296 H   0  0  0  0  0  0  0  0  0  0  0  0
   91.4173   47.5253  264.0127 H   0  0  0  0  0  0  0  0  0  0  0  0
   87.8921   45.6115  269.0070 H   0  0  0  0  0  0  0  0  0  0  0  0
   88.3504   44.6566  267.5562 H   0  0  0  0  0  0  0  0  0  0  0  0
   89.4282   45.9669  268.1464 H   0  0  0  0  0  0  0  0  0  0  0  0
  1  2  1  0  0  0  0
  1  5  2  0  0  0  0
  2  3  1  0  0  0  0
  2 12  2  3  0  0  0
  3  4  2  0  0  0  0
  4  6  1  0  0  0  0
  4 11  1  0  0  0  0
  5  6  1  0  0  0  0
  5 10  1  0  0  0  0
  6  7  1  0  0  0  0
  7  8  2  0  0  0  0
  8  9  1  0  0  0  0
  9 10  2  0  0  0  0
 11 13  1  0  0  0  0
 11 15  2  0  0  0  0
 12 21  1  0  0  0  0
 13 14  2  0  0  0  0
 14 17  1  0  0  0  0
 15 16  1  0  0  0  0
 16 17  1  0  0  0  0
 16 20  2  0  0  0  0
 17 18  2  0  0  0  0
 18 19  1  0  0  0  0
 19 20  1  0  0  0  0
 21 22  2  0  0  0  0
 21 26  1  0  0  0  0
 22 23  1  0  0  0  0
 22 27  1  0  0  0  0
 23 24  2  0  0  0  0
 24 25  1  0  0  0  0
 25 26  2  0  0  0  0
 27 28  1  0  0  0  0
 27 29  2  0  0  0  0
 27 30  2  0  0  0  0
  1 31  1  0  0  0  0
  3 32  1  0  0  0  0
  6 33  1  0  0  0  0
  8 34  1  0  0  0  0
  9 35  1  0  0  0  0
 13 36  1  0  0  0  0
 14 37  1  0  0  0  0
 15 38  1  0  0  0  0
 23 39  1  0  0  0  0
 24 40  1  0  0  0  0
 26 41  1  0  0  0  0
 28 42  1  0  0  0  0
 28 43  1  0  0  0  0
 28 44  1  0  0  0  0
M  END
> <ID>
63

> <IC50[uM]>
0.53

$$$$
63
  -OEChem-05192314313D
 Structure written by MMmdl.
 44 48  0     0  0  0  0  0  0999 V2000
   92.5635   47.3408  266.4808 C   0  0  0  0  0  0  0  0  0  0  0  0
   91.6075   48.3335  266.6743 C   0  0  0  0  0  0  0  0  0  0  0  0
   91.9695   49.5319  267.2848 C   0  0  0  0  0  0  0  0  0  0  0  0
   93.2834   49.7950  267.6878 C   0  0  0  0  0  0  0  0  0  0  0  0
   93.8922   47.5381  266.9103 C   0  0  0  0  0  0  0  0  0  0  0  0
   94.2715   48.7791  267.5122 C   0  0  0  0  0  0  0  0  0  0  0  0
   95.5600   48.9654  267.9352 N   0  0  0  0  0  0  0  0  0  0  0  0
   96.4479   47.9572  267.7463 C   0  0  0  0  0  0  0  0  0  0  0  0
   96.0599   46.7469  267.1846 C   0  0  0  0  0  0  0  0  0  0  0  0
   94.7947   46.5302  266.7602 N   0  0  0  0  0  0  0  0  0  0  0  0
   93.5954   51.0976  268.3318 C   0  0  0  0  0  0  0  0  0  0  0  0
   90.2720   48.1244  266.3145 N   0  0  0  0  0  0  0  0  0  0  0  0
   94.5752   51.9450  267.7933 C   0  0  0  0  0  0  0  0  0  0  0  0
   94.8768   53.1820  268.3621 C   0  0  0  0  0  0  0  0  0  0  0  0
   92.9001   51.4735  269.4880 C   0  0  0  0  0  0  0  0  0  0  0  0
   93.1999   52.6985  270.0791 C   0  0  0  0  0  0  0  0  0  0  0  0
   94.1534   53.5481  269.5013 C   0  0  0  0  0  0  0  0  0  0  0  0
   94.3301   54.7275  270.1391 N   0  0  0  0  0  0  0  0  0  0  0  0
   93.3222   54.6345  271.4618 S   0  0  0  0  0  0  0  0  0  0  0  0
   92.6192   53.1453  271.2154 N   0  0  0  0  0  0  0  0  0  0  0  0
   89.7145   47.3441  265.2879 C   0  0  0  0  0  0  0  0  0  0  0  0
   88.4225   46.8014  265.3965 C   0  0  0  0  0  0  0  0  0  0  0  0
   87.8867   46.0933  264.3141 C   0  0  0  0  0  0  0  0  0  0  0  0
   88.6573   45.9409  263.1630 C   0  0  0  0  0  0  0  0  0  0  0  0
   89.9107   46.4413  263.0402 N   0  0  0  0  0  0  0  0  0  0  0  0
   90.4172   47.1261  264.0958 C   0  0  0  0  0  0  0  0  0  0  0  0
   87.4804   46.8886  266.9234 S   0  0  0  0  0  0  0  0  0  0  0  0
   88.3814   45.6524  268.0226 C   0  0  0  0  0  0  0  0  0  0  0  0
   86.1349   46.3742  266.6655 O   0  0  0  0  0  0  0  0  0  0  0  0
   87.6601   48.2354  267.4816 O   0  0  0  0  0  0  0  0  0  0  0  0
   92.2864   46.4146  265.9993 H   0  0  0  0  0  0  0  0  0  0  0  0
   91.2114   50.2826  267.4526 H   0  0  0  0  0  0  0  0  0  0  0  0
   97.2421   48.3594  267.1002 H   0  0  0  0  0  0  0  0  0  0  0  0
   96.8652   47.7209  268.7363 H   0  0  0  0  0  0  0  0  0  0  0  0
   96.7896   45.9571  267.0842 H   0  0  0  0  0  0  0  0  0  0  0  0
   95.1125   51.6296  266.9111 H   0  0  0  0  0  0  0  0  0  0  0  0
   95.6341   53.8274  267.9421 H   0  0  0  0  0  0  0  0  0  0  0  0
   92.1467   50.8266  269.9127 H   0  0  0  0  0  0  0  0  0  0  0  0
   86.8936   45.6726  264.3702 H   0  0  0  0  0  0  0  0  0  0  0  0
   88.2358   45.3985  262.3296 H   0  0  0  0  0  0  0  0  0  0  0  0
   91.4173   47.5253  264.0127 H   0  0  0  0  0  0  0  0  0  0  0  0
   87.8921   45.6115  269.0070 H   0  0  0  0  0  0  0  0  0  0  0  0
   88.3504   44.6566  267.5562 H   0  0  0  0  0  0  0  0  0  0  0  0
   89.4282   45.9669  268.1464 H   0  0  0  0  0  0  0  0  0  0  0  0
  1  2  1  0  0  0  0
  1  5  2  0  0  0  0
  2  3  1  0  0  0  0
  2 12  2  3  0  0  0
  3  4  2  0  0  0  0
  4  6  1  0  0  0  0
  4 11  1  0  0  0  0
  5  6  1  0  0  0  0
  5 10  1  0  0  0  0
  6  7  2  0  0  0  0
  7  8  1  0  0  0  0
  8  9  1  0  0  0  0
  9 10  2  0  0  0  0
 11 13  1  0  0  0  0
 11 15  2  0  0  0  0
 12 21  1  0  0  0  0
 13 14  2  0  0  0  0
 14 17  1  0  0  0  0
 15 16  1  0  0  0  0
 16 17  1  0  0  0  0
 16 20  2  0  0  0  0
 17 18  2  0  0  0  0
 18 19  1  0  0  0  0
 19 20  1  0  0  0  0
 21 22  2  0  0  0  0
 21 26  1  0  0  0  0
 22 23  1  0  0  0  0
 22 27  1  0  0  0  0
 23 24  2  0  0  0  0
 24 25  1  0  0  0  0
 25 26  2  0  0  0  0
 27 28  1  0  0  0  0
 27 29  2  0  0  0  0
 27 30  2  0  0  0  0
  1 31  1  0  0  0  0
  3 32  1  0  0  0  0
  8 33  1  0  0  0  0
  8 34  1  0  0  0  0
  9 35  1  0  0  0  0
 13 36  1  0  0  0  0
 14 37  1  0  0  0  0
 15 38  1  0  0  0  0
 23 39  1  0  0  0  0
 24 40  1  0  0  0  0
 26 41  1  0  0  0  0
 28 42  1  0  0  0  0
 28 43  1  0  0  0  0
 28 44  1  0  0  0  0
M  END
> <ID>
63

> <IC50[uM]>
0.53

$$$$
