43
  -OEChem-05192314313D
 Structure written by MMmdl.
 43 46  0     0  0  0  0  0  0999 V2000
   93.2801   49.7948  267.6926 C   0  0  0  0  0  0  0  0  0  0  0  0
   92.5697   47.3273  266.4879 C   0  0  0  0  0  0  0  0  0  0  0  0
   91.6101   48.3227  266.6794 C   0  0  0  0  0  0  0  0  0  0  0  0
   91.9699   49.5231  267.2872 C   0  0  0  0  0  0  0  0  0  0  0  0
   93.8968   47.5279  266.9313 C   0  0  0  0  0  0  0  0  0  0  0  0
   94.2695   48.7730  267.5260 C   0  0  0  0  0  0  0  0  0  0  0  0
   95.5576   48.9586  267.9485 N   0  0  0  0  0  0  0  0  0  0  0  0
   96.4495   47.9531  267.7601 C   0  0  0  0  0  0  0  0  0  0  0  0
   96.0662   46.7381  267.2124 C   0  0  0  0  0  0  0  0  0  0  0  0
   94.7965   46.5169  266.7871 N   0  0  0  0  0  0  0  0  0  0  0  0
   93.5926   51.1080  268.3254 C   0  0  0  0  0  0  0  0  0  0  0  0
   93.0431   51.4518  269.5675 C   0  0  0  0  0  0  0  0  0  0  0  0
   93.3489   52.6803  270.1568 C   0  0  0  0  0  0  0  0  0  0  0  0
   94.2002   53.5732  269.5104 C   0  0  0  0  0  0  0  0  0  0  0  0
   94.7102   53.2574  268.2528 C   0  0  0  0  0  0  0  0  0  0  0  0
   94.4268   52.0279  267.6749 C   0  0  0  0  0  0  0  0  0  0  0  0
   90.2713   48.1126  266.3137 N   0  0  0  0  0  0  0  0  0  0  0  0
   89.7145   47.3382  265.2871 C   0  0  0  0  0  0  0  0  0  0  0  0
   90.4125   47.1278  264.0926 C   0  0  0  0  0  0  0  0  0  0  0  0
   89.9049   46.4459  263.0330 N   0  0  0  0  0  0  0  0  0  0  0  0
   88.6524   45.9395  263.1609 C   0  0  0  0  0  0  0  0  0  0  0  0
   87.8830   46.0841  264.3170 C   0  0  0  0  0  0  0  0  0  0  0  0
   88.4216   46.7951  265.3953 C   0  0  0  0  0  0  0  0  0  0  0  0
   87.4809   46.8875  266.9255 S   0  0  0  0  0  0  0  0  0  0  0  0
   86.1229   46.4026  266.6623 O   0  0  0  0  0  0  0  0  0  0  0  0
   87.6858   48.2236  267.4941 O   0  0  0  0  0  0  0  0  0  0  0  0
   88.3659   45.6223  267.9978 C   0  0  0  0  0  0  0  0  0  0  0  0
   95.7702   54.5153  267.3088 Br  0  0  0  0  0  0  0  0  0  0  0  0
   92.2979   46.4027  266.0004 H   0  0  0  0  0  0  0  0  0  0  0  0
   91.2088   50.2716  267.4514 H   0  0  0  0  0  0  0  0  0  0  0  0
   97.4810   48.1026  268.0431 H   0  0  0  0  0  0  0  0  0  0  0  0
   96.7967   45.9478  267.1220 H   0  0  0  0  0  0  0  0  0  0  0  0
   92.3803   50.7639  270.0713 H   0  0  0  0  0  0  0  0  0  0  0  0
   92.9244   52.9386  271.1157 H   0  0  0  0  0  0  0  0  0  0  0  0
   94.4643   54.5079  269.9827 H   0  0  0  0  0  0  0  0  0  0  0  0
   94.8531   51.7773  266.7147 H   0  0  0  0  0  0  0  0  0  0  0  0
   89.6038   48.5960  266.8800 H   0  0  0  0  0  0  0  0  0  0  0  0
   91.4112   47.5303  264.0084 H   0  0  0  0  0  0  0  0  0  0  0  0
   88.2299   45.3980  262.3274 H   0  0  0  0  0  0  0  0  0  0  0  0
   86.8932   45.6563  264.3778 H   0  0  0  0  0  0  0  0  0  0  0  0
   87.8828   45.5754  268.9849 H   0  0  0  0  0  0  0  0  0  0  0  0
   88.3143   44.6342  267.5171 H   0  0  0  0  0  0  0  0  0  0  0  0
   89.4189   45.9167  268.1187 H   0  0  0  0  0  0  0  0  0  0  0  0
  1  4  2  0  0  0  0
  1  6  1  0  0  0  0
  1 11  1  0  0  0  0
  2  3  2  0  0  0  0
  2  5  1  0  0  0  0
  3  4  1  0  0  0  0
  3 17  1  0  0  0  0
  5  6  2  0  0  0  0
  5 10  1  0  0  0  0
  6  7  1  0  0  0  0
  7  8  2  0  0  0  0
  8  9  1  0  0  0  0
  9 10  2  0  0  0  0
 11 12  2  0  0  0  0
 11 16  1  0  0  0  0
 12 13  1  0  0  0  0
 13 14  2  0  0  0  0
 14 15  1  0  0  0  0
 15 16  2  0  0  0  0
 15 28  1  0  0  0  0
 17 18  1  0  0  0  0
 18 19  2  0  0  0  0
 18 23  1  0  0  0  0
 19 20  1  0  0  0  0
 20 21  2  0  0  0  0
 21 22  1  0  0  0  0
 22 23  2  0  0  0  0
 23 24  1  0  0  0  0
 24 25  2  0  0  0  0
 24 26  2  0  0  0  0
 24 27  1  0  0  0  0
  2 29  1  0  0  0  0
  4 30  1  0  0  0  0
  8 31  1  0  0  0  0
  9 32  1  0  0  0  0
 12 33  1  0  0  0  0
 13 34  1  0  0  0  0
 14 35  1  0  0  0  0
 16 36  1  0  0  0  0
 17 37  1  0  0  0  0
 19 38  1  0  0  0  0
 21 39  1  0  0  0  0
 22 40  1  0  0  0  0
 27 41  1  0  0  0  0
 27 42  1  0  0  0  0
 27 43  1  0  0  0  0
M  END
> <ID>
43

> <IC50[uM]>
1.373

$$$$
43
  -OEChem-05192314313D
 Structure written by MMmdl.
 43 46  0     0  0  0  0  0  0999 V2000
   93.2801   49.7948  267.6926 C   0  0  0  0  0  0  0  0  0  0  0  0
   92.5697   47.3273  266.4879 C   0  0  0  0  0  0  0  0  0  0  0  0
   91.6101   48.3227  266.6794 C   0  0  0  0  0  0  0  0  0  0  0  0
   91.9699   49.5231  267.2872 C   0  0  0  0  0  0  0  0  0  0  0  0
   93.8968   47.5279  266.9313 C   0  0  0  0  0  0  0  0  0  0  0  0
   94.2695   48.7730  267.5260 C   0  0  0  0  0  0  0  0  0  0  0  0
   95.5576   48.9586  267.9485 N   0  0  0  0  0  0  0  0  0  0  0  0
   96.4495   47.9531  267.7601 C   0  0  0  0  0  0  0  0  0  0  0  0
   96.0662   46.7381  267.2124 C   0  0  0  0  0  0  0  0  0  0  0  0
   94.7965   46.5169  266.7871 N   0  0  0  0  0  0  0  0  0  0  0  0
   93.5926   51.1080  268.3254 C   0  0  0  0  0  0  0  0  0  0  0  0
   93.0431   51.4518  269.5675 C   0  0  0  0  0  0  0  0  0  0  0  0
   93.3489   52.6803  270.1568 C   0  0  0  0  0  0  0  0  0  0  0  0
   94.2002   53.5732  269.5104 C   0  0  0  0  0  0  0  0  0  0  0  0
   94.7102   53.2574  268.2528 C   0  0  0  0  0  0  0  0  0  0  0  0
   94.4268   52.0279  267.6749 C   0  0  0  0  0  0  0  0  0  0  0  0
   90.2713   48.1126  266.3137 N   0  0  0  0  0  0  0  0  0  0  0  0
   89.7145   47.3382  265.2871 C   0  0  0  0  0  0  0  0  0  0  0  0
   90.4125   47.1278  264.0926 C   0  0  0  0  0  0  0  0  0  0  0  0
   89.9049   46.4459  263.0330 N   0  0  0  0  0  0  0  0  0  0  0  0
   88.6524   45.9395  263.1609 C   0  0  0  0  0  0  0  0  0  0  0  0
   87.8830   46.0841  264.3170 C   0  0  0  0  0  0  0  0  0  0  0  0
   88.4216   46.7951  265.3953 C   0  0  0  0  0  0  0  0  0  0  0  0
   87.4809   46.8875  266.9255 S   0  0  0  0  0  0  0  0  0  0  0  0
   86.1229   46.4026  266.6623 O   0  0  0  0  0  0  0  0  0  0  0  0
   87.6858   48.2236  267.4941 O   0  0  0  0  0  0  0  0  0  0  0  0
   88.3659   45.6223  267.9978 C   0  0  0  0  0  0  0  0  0  0  0  0
   95.7702   54.5153  267.3088 Br  0  0  0  0  0  0  0  0  0  0  0  0
   92.2979   46.4027  266.0004 H   0  0  0  0  0  0  0  0  0  0  0  0
   91.2088   50.2716  267.4514 H   0  0  0  0  0  0  0  0  0  0  0  0
   97.4810   48.1026  268.0431 H   0  0  0  0  0  0  0  0  0  0  0  0
   96.7967   45.9478  267.1220 H   0  0  0  0  0  0  0  0  0  0  0  0
   94.5313   45.6419  266.3820 H   0  0  0  0  0  0  0  0  0  0  0  0
   92.3803   50.7639  270.0713 H   0  0  0  0  0  0  0  0  0  0  0  0
   92.9244   52.9386  271.1157 H   0  0  0  0  0  0  0  0  0  0  0  0
   94.4643   54.5079  269.9827 H   0  0  0  0  0  0  0  0  0  0  0  0
   94.8531   51.7773  266.7147 H   0  0  0  0  0  0  0  0  0  0  0  0
   91.4112   47.5303  264.0084 H   0  0  0  0  0  0  0  0  0  0  0  0
   88.2299   45.3980  262.3274 H   0  0  0  0  0  0  0  0  0  0  0  0
   86.8932   45.6563  264.3778 H   0  0  0  0  0  0  0  0  0  0  0  0
   87.8828   45.5754  268.9849 H   0  0  0  0  0  0  0  0  0  0  0  0
   88.3143   44.6342  267.5171 H   0  0  0  0  0  0  0  0  0  0  0  0
   89.4189   45.9167  268.1187 H   0  0  0  0  0  0  0  0  0  0  0  0
  1  4  2  0  0  0  0
  1  6  1  0  0  0  0
  1 11  1  0  0  0  0
  2  3  1  0  0  0  0
  2  5  2  0  0  0  0
  3  4  1  0  0  0  0
  3 17  2  3  0  0  0
  5  6  1  0  0  0  0
  5 10  1  0  0  0  0
  6  7  2  0  0  0  0
  7  8  1  0  0  0  0
  8  9  2  0  0  0  0
  9 10  1  0  0  0  0
 11 12  2  0  0  0  0
 11 16  1  0  0  0  0
 12 13  1  0  0  0  0
 13 14  2  0  0  0  0
 14 15  1  0  0  0  0
 15 16  2  0  0  0  0
 15 28  1  0  0  0  0
 17 18  1  0  0  0  0
 18 19  2  0  0  0  0
 18 23  1  0  0  0  0
 19 20  1  0  0  0  0
 20 21  2  0  0  0  0
 21 22  1  0  0  0  0
 22 23  2  0  0  0  0
 23 24  1  0  0  0  0
 24 25  2  0  0  0  0
 24 26  2  0  0  0  0
 24 27  1  0  0  0  0
  2 29  1  0  0  0  0
  4 30  1  0  0  0  0
  8 31  1  0  0  0  0
  9 32  1  0  0  0  0
 10 33  1  0  0  0  0
 12 34  1  0  0  0  0
 13 35  1  0  0  0  0
 14 36  1  0  0  0  0
 16 37  1  0  0  0  0
 19 38  1  0  0  0  0
 21 39  1  0  0  0  0
 22 40  1  0  0  0  0
 27 41  1  0  0  0  0
 27 42  1  0  0  0  0
 27 43  1  0  0  0  0
M  END
> <ID>
43

> <IC50[uM]>
1.373

$$$$
43
  -OEChem-05192314313D
 Structure written by MMmdl.
 43 46  0     0  0  0  0  0  0999 V2000
   93.2801   49.7948  267.6926 C   0  0  0  0  0  0  0  0  0  0  0  0
   92.5697   47.3273  266.4879 C   0  0  0  0  0  0  0  0  0  0  0  0
   91.6101   48.3227  266.6794 C   0  0  0  0  0  0  0  0  0  0  0  0
   91.9699   49.5231  267.2872 C   0  0  0  0  0  0  0  0  0  0  0  0
   93.8968   47.5279  266.9313 C   0  0  0  0  0  0  0  0  0  0  0  0
   94.2695   48.7730  267.5260 C   0  0  0  0  0  0  0  0  0  0  0  0
   95.5576   48.9586  267.9485 N   0  0  0  0  0  0  0  0  0  0  0  0
   96.4495   47.9531  267.7601 C   0  0  0  0  0  0  0  0  0  0  0  0
   96.0662   46.7381  267.2124 C   0  0  0  0  0  0  0  0  0  0  0  0
   94.7965   46.5169  266.7871 N   0  0  0  0  0  0  0  0  0  0  0  0
   93.5926   51.1080  268.3254 C   0  0  0  0  0  0  0  0  0  0  0  0
   93.0431   51.4518  269.5675 C   0  0  0  0  0  0  0  0  0  0  0  0
   93.3489   52.6803  270.1568 C   0  0  0  0  0  0  0  0  0  0  0  0
   94.2002   53.5732  269.5104 C   0  0  0  0  0  0  0  0  0  0  0  0
   94.7102   53.2574  268.2528 C   0  0  0  0  0  0  0  0  0  0  0  0
   94.4268   52.0279  267.6749 C   0  0  0  0  0  0  0  0  0  0  0  0
   90.2713   48.1126  266.3137 N   0  0  0  0  0  0  0  0  0  0  0  0
   89.7145   47.3382  265.2871 C   0  0  0  0  0  0  0  0  0  0  0  0
   90.4125   47.1278  264.0926 C   0  0  0  0  0  0  0  0  0  0  0  0
   89.9049   46.4459  263.0330 N   0  0  0  0  0  0  0  0  0  0  0  0
   88.6524   45.9395  263.1609 C   0  0  0  0  0  0  0  0  0  0  0  0
   87.8830   46.0841  264.3170 C   0  0  0  0  0  0  0  0  0  0  0  0
   88.4216   46.7951  265.3953 C   0  0  0  0  0  0  0  0  0  0  0  0
   87.4809   46.8875  266.9255 S   0  0  0  0  0  0  0  0  0  0  0  0
   86.1229   46.4026  266.6623 O   0  0  0  0  0  0  0  0  0  0  0  0
   87.6858   48.2236  267.4941 O   0  0  0  0  0  0  0  0  0  0  0  0
   88.3659   45.6223  267.9978 C   0  0  0  0  0  0  0  0  0  0  0  0
   95.7702   54.5153  267.3088 Br  0  0  0  0  0  0  0  0  0  0  0  0
   92.1979   46.4261  266.9974 H   0  0  0  0  0  0  0  0  0  0  0  0
   92.6218   47.1411  265.4050 H   0  0  0  0  0  0  0  0  0  0  0  0
   91.2088   50.2716  267.4514 H   0  0  0  0  0  0  0  0  0  0  0  0
   97.4810   48.1026  268.0431 H   0  0  0  0  0  0  0  0  0  0  0  0
   96.7967   45.9478  267.1220 H   0  0  0  0  0  0  0  0  0  0  0  0
   92.3803   50.7639  270.0713 H   0  0  0  0  0  0  0  0  0  0  0  0
   92.9244   52.9386  271.1157 H   0  0  0  0  0  0  0  0  0  0  0  0
   94.4643   54.5079  269.9827 H   0  0  0  0  0  0  0  0  0  0  0  0
   94.8531   51.7773  266.7147 H   0  0  0  0  0  0  0  0  0  0  0  0
   91.4112   47.5303  264.0084 H   0  0  0  0  0  0  0  0  0  0  0  0
   88.2299   45.3980  262.3274 H   0  0  0  0  0  0  0  0  0  0  0  0
   86.8932   45.6563  264.3778 H   0  0  0  0  0  0  0  0  0  0  0  0
   87.8828   45.5754  268.9849 H   0  0  0  0  0  0  0  0  0  0  0  0
   88.3143   44.6342  267.5171 H   0  0  0  0  0  0  0  0  0  0  0  0
   89.4189   45.9167  268.1187 H   0  0  0  0  0  0  0  0  0  0  0  0
  1  4  2  0  0  0  0
  1  6  1  0  0  0  0
  1 11  1  0  0  0  0
  2  3  1  0  0  0  0
  2  5  1  0  0  0  0
  3  4  1  0  0  0  0
  3 17  2  3  0  0  0
  5  6  2  0  0  0  0
  5 10  1  0  0  0  0
  6  7  1  0  0  0  0
  7  8  2  0  0  0  0
  8  9  1  0  0  0  0
  9 10  2  0  0  0  0
 11 12  2  0  0  0  0
 11 16  1  0  0  0  0
 12 13  1  0  0  0  0
 13 14  2  0  0  0  0
 14 15  1  0  0  0  0
 15 16  2  0  0  0  0
 15 28  1  0  0  0  0
 17 18  1  0  0  0  0
 18 19  2  0  0  0  0
 18 23  1  0  0  0  0
 19 20  1  0  0  0  0
 20 21  2  0  0  0  0
 21 22  1  0  0  0  0
 22 23  2  0  0  0  0
 23 24  1  0  0  0  0
 24 25  2  0  0  0  0
 24 26  2  0  0  0  0
 24 27  1  0  0  0  0
  2 29  1  0  0  0  0
  2 30  1  0  0  0  0
  4 31  1  0  0  0  0
  8 32  1  0  0  0  0
  9 33  1  0  0  0  0
 12 34  1  0  0  0  0
 13 35  1  0  0  0  0
 14 36  1  0  0  0  0
 16 37  1  0  0  0  0
 19 38  1  0  0  0  0
 21 39  1  0  0  0  0
 22 40  1  0  0  0  0
 27 41  1  0  0  0  0
 27 42  1  0  0  0  0
 27 43  1  0  0  0  0
M  END
> <ID>
43

> <IC50[uM]>
1.373

$$$$
43
  -OEChem-05192314313D
 Structure written by MMmdl.
 43 46  0     0  0  0  0  0  0999 V2000
   93.2801   49.7948  267.6926 C   0  0  0  0  0  0  0  0  0  0  0  0
   92.5697   47.3273  266.4879 C   0  0  0  0  0  0  0  0  0  0  0  0
   91.6101   48.3227  266.6794 C   0  0  0  0  0  0  0  0  0  0  0  0
   91.9699   49.5231  267.2872 C   0  0  0  0  0  0  0  0  0  0  0  0
   93.8968   47.5279  266.9313 C   0  0  0  0  0  0  0  0  0  0  0  0
   94.2695   48.7730  267.5260 C   0  0  0  0  0  0  0  0  0  0  0  0
   95.5576   48.9586  267.9485 N   0  0  0  0  0  0  0  0  0  0  0  0
   96.4495   47.9531  267.7601 C   0  0  0  0  0  0  0  0  0  0  0  0
   96.0662   46.7381  267.2124 C   0  0  0  0  0  0  0  0  0  0  0  0
   94.7965   46.5169  266.7871 N   0  0  0  0  0  0  0  0  0  0  0  0
   93.5926   51.1080  268.3254 C   0  0  0  0  0  0  0  0  0  0  0  0
   93.0431   51.4518  269.5675 C   0  0  0  0  0  0  0  0  0  0  0  0
   93.3489   52.6803  270.1568 C   0  0  0  0  0  0  0  0  0  0  0  0
   94.2002   53.5732  269.5104 C   0  0  0  0  0  0  0  0  0  0  0  0
   94.7102   53.2574  268.2528 C   0  0  0  0  0  0  0  0  0  0  0  0
   94.4268   52.0279  267.6749 C   0  0  0  0  0  0  0  0  0  0  0  0
   90.2713   48.1126  266.3137 N   0  0  0  0  0  0  0  0  0  0  0  0
   89.7145   47.3382  265.2871 C   0  0  0  0  0  0  0  0  0  0  0  0
   90.4125   47.1278  264.0926 C   0  0  0  0  0  0  0  0  0  0  0  0
   89.9049   46.4459  263.0330 N   0  0  0  0  0  0  0  0  0  0  0  0
   88.6524   45.9395  263.1609 C   0  0  0  0  0  0  0  0  0  0  0  0
   87.8830   46.0841  264.3170 C   0  0  0  0  0  0  0  0  0  0  0  0
   88.4216   46.7951  265.3953 C   0  0  0  0  0  0  0  0  0  0  0  0
   87.4809   46.8875  266.9255 S   0  0  0  0  0  0  0  0  0  0  0  0
   86.1229   46.4026  266.6623 O   0  0  0  0  0  0  0  0  0  0  0  0
   87.6858   48.2236  267.4941 O   0  0  0  0  0  0  0  0  0  0  0  0
   88.3659   45.6223  267.9978 C   0  0  0  0  0  0  0  0  0  0  0  0
   95.7702   54.5153  267.3088 Br  0  0  0  0  0  0  0  0  0  0  0  0
   92.2979   46.4027  266.0004 H   0  0  0  0  0  0  0  0  0  0  0  0
   91.3467   49.6078  268.1897 H   0  0  0  0  0  0  0  0  0  0  0  0
   91.6980   50.3186  266.5778 H   0  0  0  0  0  0  0  0  0  0  0  0
   97.4810   48.1026  268.0431 H   0  0  0  0  0  0  0  0  0  0  0  0
   96.7967   45.9478  267.1220 H   0  0  0  0  0  0  0  0  0  0  0  0
   92.3803   50.7639  270.0713 H   0  0  0  0  0  0  0  0  0  0  0  0
   92.9244   52.9386  271.1157 H   0  0  0  0  0  0  0  0  0  0  0  0
   94.4643   54.5079  269.9827 H   0  0  0  0  0  0  0  0  0  0  0  0
   94.8531   51.7773  266.7147 H   0  0  0  0  0  0  0  0  0  0  0  0
   91.4112   47.5303  264.0084 H   0  0  0  0  0  0  0  0  0  0  0  0
   88.2299   45.3980  262.3274 H   0  0  0  0  0  0  0  0  0  0  0  0
   86.8932   45.6563  264.3778 H   0  0  0  0  0  0  0  0  0  0  0  0
   87.8828   45.5754  268.9849 H   0  0  0  0  0  0  0  0  0  0  0  0
   88.3143   44.6342  267.5171 H   0  0  0  0  0  0  0  0  0  0  0  0
   89.4189   45.9167  268.1187 H   0  0  0  0  0  0  0  0  0  0  0  0
  1  4  1  0  0  0  0
  1  6  2  0  0  0  0
  1 11  1  0  0  0  0
  2  3  1  0  0  0  0
  2  5  2  0  0  0  0
  3  4  1  0  0  0  0
  3 17  2  3  0  0  0
  5  6  1  0  0  0  0
  5 10  1  0  0  0  0
  6  7  1  0  0  0  0
  7  8  2  0  0  0  0
  8  9  1  0  0  0  0
  9 10  2  0  0  0  0
 11 12  2  0  0  0  0
 11 16  1  0  0  0  0
 12 13  1  0  0  0  0
 13 14  2  0  0  0  0
 14 15  1  0  0  0  0
 15 16  2  0  0  0  0
 15 28  1  0  0  0  0
 17 18  1  0  0  0  0
 18 19  2  0  0  0  0
 18 23  1  0  0  0  0
 19 20  1  0  0  0  0
 20 21  2  0  0  0  0
 21 22  1  0  0  0  0
 22 23  2  0  0  0  0
 23 24  1  0  0  0  0
 24 25  2  0  0  0  0
 24 26  2  0  0  0  0
 24 27  1  0  0  0  0
  2 29  1  0  0  0  0
  4 30  1  0  0  0  0
  4 31  1  0  0  0  0
  8 32  1  0  0  0  0
  9 33  1  0  0  0  0
 12 34  1  0  0  0  0
 13 35  1  0  0  0  0
 14 36  1  0  0  0  0
 16 37  1  0  0  0  0
 19 38  1  0  0  0  0
 21 39  1  0  0  0  0
 22 40  1  0  0  0  0
 27 41  1  0  0  0  0
 27 42  1  0  0  0  0
 27 43  1  0  0  0  0
M  END
> <ID>
43

> <IC50[uM]>
1.373

$$$$
43
  -OEChem-05192314313D
 Structure written by MMmdl.
 43 46  0     1  0  0  0  0  0999 V2000
   93.2801   49.7948  267.6926 C   0  0  0  0  0  0  0  0  0  0  0  0
   92.5697   47.3273  266.4879 C   0  0  0  0  0  0  0  0  0  0  0  0
   91.6101   48.3227  266.6794 C   0  0  0  0  0  0  0  0  0  0  0  0
   91.9699   49.5231  267.2872 C   0  0  0  0  0  0  0  0  0  0  0  0
   93.8968   47.5279  266.9313 C   0  0  0  0  0  0  0  0  0  0  0  0
   94.2695   48.7730  267.5260 C   0  0  0  0  0  0  0  0  0  0  0  0
   95.5576   48.9586  267.9485 N   0  0  0  0  0  0  0  0  0  0  0  0
   96.4495   47.9531  267.7601 C   0  0  0  0  0  0  0  0  0  0  0  0
   96.0662   46.7381  267.2124 C   0  0  0  0  0  0  0  0  0  0  0  0
   94.7965   46.5169  266.7871 N   0  0  0  0  0  0  0  0  0  0  0  0
   93.5926   51.1080  268.3254 C   0  0  0  0  0  0  0  0  0  0  0  0
   93.0431   51.4518  269.5675 C   0  0  0  0  0  0  0  0  0  0  0  0
   93.3489   52.6803  270.1568 C   0  0  0  0  0  0  0  0  0  0  0  0
   94.2002   53.5732  269.5104 C   0  0  0  0  0  0  0  0  0  0  0  0
   94.7102   53.2574  268.2528 C   0  0  0  0  0  0  0  0  0  0  0  0
   94.4268   52.0279  267.6749 C   0  0  0  0  0  0  0  0  0  0  0  0
   90.2713   48.1126  266.3137 N   0  0  0  0  0  0  0  0  0  0  0  0
   89.7145   47.3382  265.2871 C   0  0  0  0  0  0  0  0  0  0  0  0
   90.4125   47.1278  264.0926 C   0  0  0  0  0  0  0  0  0  0  0  0
   89.9049   46.4459  263.0330 N   0  0  0  0  0  0  0  0  0  0  0  0
   88.6524   45.9395  263.1609 C   0  0  0  0  0  0  0  0  0  0  0  0
   87.8830   46.0841  264.3170 C   0  0  0  0  0  0  0  0  0  0  0  0
   88.4216   46.7951  265.3953 C   0  0  3  0  0  0  0  0  0  0  0  0
   87.4809   46.8875  266.9255 S   0  0  0  0  0  0  0  0  0  0  0  0
   86.1229   46.4026  266.6623 O   0  0  0  0  0  0  0  0  0  0  0  0
   87.6858   48.2236  267.4941 O   0  0  0  0  0  0  0  0  0  0  0  0
   88.3659   45.6223  267.9978 C   0  0  0  0  0  0  0  0  0  0  0  0
   95.7702   54.5153  267.3088 Br  0  0  0  0  0  0  0  0  0  0  0  0
   92.2979   46.4027  266.0004 H   0  0  0  0  0  0  0  0  0  0  0  0
   91.2088   50.2716  267.4514 H   0  0  0  0  0  0  0  0  0  0  0  0
   97.4810   48.1026  268.0431 H   0  0  0  0  0  0  0  0  0  0  0  0
   96.7967   45.9478  267.1220 H   0  0  0  0  0  0  0  0  0  0  0  0
   92.3803   50.7639  270.0713 H   0  0  0  0  0  0  0  0  0  0  0  0
   92.9244   52.9386  271.1157 H   0  0  0  0  0  0  0  0  0  0  0  0
   94.4643   54.5079  269.9827 H   0  0  0  0  0  0  0  0  0  0  0  0
   94.8531   51.7773  266.7147 H   0  0  0  0  0  0  0  0  0  0  0  0
   91.4112   47.5303  264.0084 H   0  0  0  0  0  0  0  0  0  0  0  0
   88.2299   45.3980  262.3274 H   0  0  0  0  0  0  0  0  0  0  0  0
   86.8932   45.6563  264.3778 H   0  0  0  0  0  0  0  0  0  0  0  0
   87.9698   47.7319  265.0371 H   0  0  0  0  0  0  0  0  0  0  0  0
   87.8828   45.5754  268.9849 H   0  0  0  0  0  0  0  0  0  0  0  0
   88.3143   44.6342  267.5171 H   0  0  0  0  0  0  0  0  0  0  0  0
   89.4189   45.9167  268.1187 H   0  0  0  0  0  0  0  0  0  0  0  0
  1  4  2  0  0  0  0
  1  6  1  0  0  0  0
  1 11  1  0  0  0  0
  2  3  2  0  0  0  0
  2  5  1  0  0  0  0
  3  4  1  0  0  0  0
  3 17  1  0  0  0  0
  5  6  2  0  0  0  0
  5 10  1  0  0  0  0
  6  7  1  0  0  0  0
  7  8  2  0  0  0  0
  8  9  1  0  0  0  0
  9 10  2  0  0  0  0
 11 12  2  0  0  0  0
 11 16  1  0  0  0  0
 12 13  1  0  0  0  0
 13 14  2  0  0  0  0
 14 15  1  0  0  0  0
 15 16  2  0  0  0  0
 15 28  1  0  0  0  0
 17 18  2  3  0  0  0
 18 19  1  0  0  0  0
 18 23  1  0  0  0  0
 19 20  2  0  0  0  0
 20 21  1  0  0  0  0
 21 22  2  0  0  0  0
 22 23  1  0  0  0  0
 23 24  1  0  0  0  0
 24 25  2  0  0  0  0
 24 26  2  0  0  0  0
 24 27  1  0  0  0  0
  2 29  1  0  0  0  0
  4 30  1  0  0  0  0
  8 31  1  0  0  0  0
  9 32  1  0  0  0  0
 12 33  1  0  0  0  0
 13 34  1  0  0  0  0
 14 35  1  0  0  0  0
 16 36  1  0  0  0  0
 19 37  1  0  0  0  0
 21 38  1  0  0  0  0
 22 39  1  0  0  0  0
 23 40  1  0  0  0  0
 27 41  1  0  0  0  0
 27 42  1  0  0  0  0
 27 43  1  0  0  0  0
M  END
> <ID>
43

> <IC50[uM]>
1.373

$$$$
43
  -OEChem-05192314313D
 Structure written by MMmdl.
 43 46  0     0  0  0  0  0  0999 V2000
   93.2801   49.7948  267.6926 C   0  0  0  0  0  0  0  0  0  0  0  0
   92.5697   47.3273  266.4879 C   0  0  0  0  0  0  0  0  0  0  0  0
   91.6101   48.3227  266.6794 C   0  0  0  0  0  0  0  0  0  0  0  0
   91.9699   49.5231  267.2872 C   0  0  0  0  0  0  0  0  0  0  0  0
   93.8968   47.5279  266.9313 C   0  0  0  0  0  0  0  0  0  0  0  0
   94.2695   48.7730  267.5260 C   0  0  0  0  0  0  0  0  0  0  0  0
   95.5576   48.9586  267.9485 N   0  0  0  0  0  0  0  0  0  0  0  0
   96.4495   47.9531  267.7601 C   0  0  0  0  0  0  0  0  0  0  0  0
   96.0662   46.7381  267.2124 C   0  0  0  0  0  0  0  0  0  0  0  0
   94.7965   46.5169  266.7871 N   0  0  0  0  0  0  0  0  0  0  0  0
   93.5926   51.1080  268.3254 C   0  0  0  0  0  0  0  0  0  0  0  0
   93.0431   51.4518  269.5675 C   0  0  0  0  0  0  0  0  0  0  0  0
   93.3489   52.6803  270.1568 C   0  0  0  0  0  0  0  0  0  0  0  0
   94.2002   53.5732  269.5104 C   0  0  0  0  0  0  0  0  0  0  0  0
   94.7102   53.2574  268.2528 C   0  0  0  0  0  0  0  0  0  0  0  0
   94.4268   52.0279  267.6749 C   0  0  0  0  0  0  0  0  0  0  0  0
   90.2713   48.1126  266.3137 N   0  0  0  0  0  0  0  0  0  0  0  0
   89.7145   47.3382  265.2871 C   0  0  0  0  0  0  0  0  0  0  0  0
   90.4125   47.1278  264.0926 C   0  0  0  0  0  0  0  0  0  0  0  0
   89.9049   46.4459  263.0330 N   0  0  0  0  0  0  0  0  0  0  0  0
   88.6524   45.9395  263.1609 C   0  0  0  0  0  0  0  0  0  0  0  0
   87.8830   46.0841  264.3170 C   0  0  0  0  0  0  0  0  0  0  0  0
   88.4216   46.7951  265.3953 C   0  0  0  0  0  0  0  0  0  0  0  0
   87.4809   46.8875  266.9255 S   0  0  0  0  0  0  0  0  0  0  0  0
   86.1229   46.4026  266.6623 O   0  0  0  0  0  0  0  0  0  0  0  0
   87.6858   48.2236  267.4941 O   0  0  0  0  0  0  0  0  0  0  0  0
   88.3659   45.6223  267.9978 C   0  0  0  0  0  0  0  0  0  0  0  0
   95.7702   54.5153  267.3088 Br  0  0  0  0  0  0  0  0  0  0  0  0
   92.2979   46.4027  266.0004 H   0  0  0  0  0  0  0  0  0  0  0  0
   91.2088   50.2716  267.4514 H   0  0  0  0  0  0  0  0  0  0  0  0
   97.4810   48.1026  268.0431 H   0  0  0  0  0  0  0  0  0  0  0  0
   96.7967   45.9478  267.1220 H   0  0  0  0  0  0  0  0  0  0  0  0
   92.3803   50.7639  270.0713 H   0  0  0  0  0  0  0  0  0  0  0  0
   92.9244   52.9386  271.1157 H   0  0  0  0  0  0  0  0  0  0  0  0
   94.4643   54.5079  269.9827 H   0  0  0  0  0  0  0  0  0  0  0  0
   94.8531   51.7773  266.7147 H   0  0  0  0  0  0  0  0  0  0  0  0
   91.4112   47.5303  264.0084 H   0  0  0  0  0  0  0  0  0  0  0  0
   88.0617   46.3859  262.3474 H   0  0  0  0  0  0  0  0  0  0  0  0
   88.7462   44.8563  262.9942 H   0  0  0  0  0  0  0  0  0  0  0  0
   86.8932   45.6563  264.3778 H   0  0  0  0  0  0  0  0  0  0  0  0
   87.8828   45.5754  268.9849 H   0  0  0  0  0  0  0  0  0  0  0  0
   88.3143   44.6342  267.5171 H   0  0  0  0  0  0  0  0  0  0  0  0
   89.4189   45.9167  268.1187 H   0  0  0  0  0  0  0  0  0  0  0  0
  1  4  2  0  0  0  0
  1  6  1  0  0  0  0
  1 11  1  0  0  0  0
  2  3  2  0  0  0  0
  2  5  1  0  0  0  0
  3  4  1  0  0  0  0
  3 17  1  0  0  0  0
  5  6  2  0  0  0  0
  5 10  1  0  0  0  0
  6  7  1  0  0  0  0
  7  8  2  0  0  0  0
  8  9  1  0  0  0  0
  9 10  2  0  0  0  0
 11 12  2  0  0  0  0
 11 16  1  0  0  0  0
 12 13  1  0  0  0  0
 13 14  2  0  0  0  0
 14 15  1  0  0  0  0
 15 16  2  0  0  0  0
 15 28  1  0  0  0  0
 17 18  2  3  0  0  0
 18 19  1  0  0  0  0
 18 23  1  0  0  0  0
 19 20  2  0  0  0  0
 20 21  1  0  0  0  0
 21 22  1  0  0  0  0
 22 23  2  0  0  0  0
 23 24  1  0  0  0  0
 24 25  2  0  0  0  0
 24 26  2  0  0  0  0
 24 27  1  0  0  0  0
  2 29  1  0  0  0  0
  4 30  1  0  0  0  0
  8 31  1  0  0  0  0
  9 32  1  0  0  0  0
 12 33  1  0  0  0  0
 13 34  1  0  0  0  0
 14 35  1  0  0  0  0
 16 36  1  0  0  0  0
 19 37  1  0  0  0  0
 21 38  1  0  0  0  0
 21 39  1  0  0  0  0
 22 40  1  0  0  0  0
 27 41  1  0  0  0  0
 27 42  1  0  0  0  0
 27 43  1  0  0  0  0
M  END
> <ID>
43

> <IC50[uM]>
1.373

$$$$
43
  -OEChem-05192314313D
 Structure written by MMmdl.
 43 46  0     0  0  0  0  0  0999 V2000
   93.2801   49.7948  267.6926 C   0  0  0  0  0  0  0  0  0  0  0  0
   92.5697   47.3273  266.4879 C   0  0  0  0  0  0  0  0  0  0  0  0
   91.6101   48.3227  266.6794 C   0  0  0  0  0  0  0  0  0  0  0  0
   91.9699   49.5231  267.2872 C   0  0  0  0  0  0  0  0  0  0  0  0
   93.8968   47.5279  266.9313 C   0  0  0  0  0  0  0  0  0  0  0  0
   94.2695   48.7730  267.5260 C   0  0  0  0  0  0  0  0  0  0  0  0
   95.5576   48.9586  267.9485 N   0  0  0  0  0  0  0  0  0  0  0  0
   96.4495   47.9531  267.7601 C   0  0  0  0  0  0  0  0  0  0  0  0
   96.0662   46.7381  267.2124 C   0  0  0  0  0  0  0  0  0  0  0  0
   94.7965   46.5169  266.7871 N   0  0  0  0  0  0  0  0  0  0  0  0
   93.5926   51.1080  268.3254 C   0  0  0  0  0  0  0  0  0  0  0  0
   93.0431   51.4518  269.5675 C   0  0  0  0  0  0  0  0  0  0  0  0
   93.3489   52.6803  270.1568 C   0  0  0  0  0  0  0  0  0  0  0  0
   94.2002   53.5732  269.5104 C   0  0  0  0  0  0  0  0  0  0  0  0
   94.7102   53.2574  268.2528 C   0  0  0  0  0  0  0  0  0  0  0  0
   94.4268   52.0279  267.6749 C   0  0  0  0  0  0  0  0  0  0  0  0
   90.2713   48.1126  266.3137 N   0  0  0  0  0  0  0  0  0  0  0  0
   89.7145   47.3382  265.2871 C   0  0  0  0  0  0  0  0  0  0  0  0
   90.4125   47.1278  264.0926 C   0  0  0  0  0  0  0  0  0  0  0  0
   89.9049   46.4459  263.0330 N   0  0  0  0  0  0  0  0  0  0  0  0
   88.6524   45.9395  263.1609 C   0  0  0  0  0  0  0  0  0  0  0  0
   87.8830   46.0841  264.3170 C   0  0  0  0  0  0  0  0  0  0  0  0
   88.4216   46.7951  265.3953 C   0  0  0  0  0  0  0  0  0  0  0  0
   87.4809   46.8875  266.9255 S   0  0  0  0  0  0  0  0  0  0  0  0
   86.1229   46.4026  266.6623 O   0  0  0  0  0  0  0  0  0  0  0  0
   87.6858   48.2236  267.4941 O   0  0  0  0  0  0  0  0  0  0  0  0
   88.3659   45.6223  267.9978 C   0  0  0  0  0  0  0  0  0  0  0  0
   95.7702   54.5153  267.3088 Br  0  0  0  0  0  0  0  0  0  0  0  0
   92.2979   46.4027  266.0004 H   0  0  0  0  0  0  0  0  0  0  0  0
   91.2088   50.2716  267.4514 H   0  0  0  0  0  0  0  0  0  0  0  0
   97.4810   48.1026  268.0431 H   0  0  0  0  0  0  0  0  0  0  0  0
   96.7967   45.9478  267.1220 H   0  0  0  0  0  0  0  0  0  0  0  0
   92.3803   50.7639  270.0713 H   0  0  0  0  0  0  0  0  0  0  0  0
   92.9244   52.9386  271.1157 H   0  0  0  0  0  0  0  0  0  0  0  0
   94.4643   54.5079  269.9827 H   0  0  0  0  0  0  0  0  0  0  0  0
   94.8531   51.7773  266.7147 H   0  0  0  0  0  0  0  0  0  0  0  0
   90.6638   48.1288  263.7121 H   0  0  0  0  0  0  0  0  0  0  0  0
   91.3357   46.6001  264.3740 H   0  0  0  0  0  0  0  0  0  0  0  0
   88.2299   45.3980  262.3274 H   0  0  0  0  0  0  0  0  0  0  0  0
   86.8932   45.6563  264.3778 H   0  0  0  0  0  0  0  0  0  0  0  0
   87.8828   45.5754  268.9849 H   0  0  0  0  0  0  0  0  0  0  0  0
   88.3143   44.6342  267.5171 H   0  0  0  0  0  0  0  0  0  0  0  0
   89.4189   45.9167  268.1187 H   0  0  0  0  0  0  0  0  0  0  0  0
  1  4  2  0  0  0  0
  1  6  1  0  0  0  0
  1 11  1  0  0  0  0
  2  3  2  0  0  0  0
  2  5  1  0  0  0  0
  3  4  1  0  0  0  0
  3 17  1  0  0  0  0
  5  6  2  0  0  0  0
  5 10  1  0  0  0  0
  6  7  1  0  0  0  0
  7  8  2  0  0  0  0
  8  9  1  0  0  0  0
  9 10  2  0  0  0  0
 11 12  2  0  0  0  0
 11 16  1  0  0  0  0
 12 13  1  0  0  0  0
 13 14  2  0  0  0  0
 14 15  1  0  0  0  0
 15 16  2  0  0  0  0
 15 28  1  0  0  0  0
 17 18  2  3  0  0  0
 18 19  1  0  0  0  0
 18 23  1  0  0  0  0
 19 20  1  0  0  0  0
 20 21  2  0  0  0  0
 21 22  1  0  0  0  0
 22 23  2  0  0  0  0
 23 24  1  0  0  0  0
 24 25  2  0  0  0  0
 24 26  2  0  0  0  0
 24 27  1  0  0  0  0
  2 29  1  0  0  0  0
  4 30  1  0  0  0  0
  8 31  1  0  0  0  0
  9 32  1  0  0  0  0
 12 33  1  0  0  0  0
 13 34  1  0  0  0  0
 14 35  1  0  0  0  0
 16 36  1  0  0  0  0
 19 37  1  0  0  0  0
 19 38  1  0  0  0  0
 21 39  1  0  0  0  0
 22 40  1  0  0  0  0
 27 41  1  0  0  0  0
 27 42  1  0  0  0  0
 27 43  1  0  0  0  0
M  END
> <ID>
43

> <IC50[uM]>
1.373

$$$$
43
  -OEChem-05192314313D
 Structure written by MMmdl.
 43 46  0     1  0  0  0  0  0999 V2000
   93.2801   49.7948  267.6926 C   0  0  0  0  0  0  0  0  0  0  0  0
   92.5697   47.3273  266.4879 C   0  0  0  0  0  0  0  0  0  0  0  0
   91.6101   48.3227  266.6794 C   0  0  0  0  0  0  0  0  0  0  0  0
   91.9699   49.5231  267.2872 C   0  0  0  0  0  0  0  0  0  0  0  0
   93.8968   47.5279  266.9313 C   0  0  0  0  0  0  0  0  0  0  0  0
   94.2695   48.7730  267.5260 C   0  0  3  0  0  0  0  0  0  0  0  0
   95.5576   48.9586  267.9485 N   0  0  0  0  0  0  0  0  0  0  0  0
   96.4495   47.9531  267.7601 C   0  0  0  0  0  0  0  0  0  0  0  0
   96.0662   46.7381  267.2124 C   0  0  0  0  0  0  0  0  0  0  0  0
   94.7965   46.5169  266.7871 N   0  0  0  0  0  0  0  0  0  0  0  0
   93.5926   51.1080  268.3254 C   0  0  0  0  0  0  0  0  0  0  0  0
   93.0431   51.4518  269.5675 C   0  0  0  0  0  0  0  0  0  0  0  0
   93.3489   52.6803  270.1568 C   0  0  0  0  0  0  0  0  0  0  0  0
   94.2002   53.5732  269.5104 C   0  0  0  0  0  0  0  0  0  0  0  0
   94.7102   53.2574  268.2528 C   0  0  0  0  0  0  0  0  0  0  0  0
   94.4268   52.0279  267.6749 C   0  0  0  0  0  0  0  0  0  0  0  0
   90.2713   48.1126  266.3137 N   0  0  0  0  0  0  0  0  0  0  0  0
   89.7145   47.3382  265.2871 C   0  0  0  0  0  0  0  0  0  0  0  0
   90.4125   47.1278  264.0926 C   0  0  0  0  0  0  0  0  0  0  0  0
   89.9049   46.4459  263.0330 N   0  0  0  0  0  0  0  0  0  0  0  0
   88.6524   45.9395  263.1609 C   0  0  0  0  0  0  0  0  0  0  0  0
   87.8830   46.0841  264.3170 C   0  0  0  0  0  0  0  0  0  0  0  0
   88.4216   46.7951  265.3953 C   0  0  0  0  0  0  0  0  0  0  0  0
   87.4809   46.8875  266.9255 S   0  0  0  0  0  0  0  0  0  0  0  0
   86.1229   46.4026  266.6623 O   0  0  0  0  0  0  0  0  0  0  0  0
   87.6858   48.2236  267.4941 O   0  0  0  0  0  0  0  0  0  0  0  0
   88.3659   45.6223  267.9978 C   0  0  0  0  0  0  0  0  0  0  0  0
   95.7702   54.5153  267.3088 Br  0  0  0  0  0  0  0  0  0  0  0  0
   92.2979   46.4027  266.0004 H   0  0  0  0  0  0  0  0  0  0  0  0
   91.2088   50.2716  267.4514 H   0  0  0  0  0  0  0  0  0  0  0  0
   94.5287   49.1760  266.5359 H   0  0  0  0  0  0  0  0  0  0  0  0
   97.4810   48.1026  268.0431 H   0  0  0  0  0  0  0  0  0  0  0  0
   96.7967   45.9478  267.1220 H   0  0  0  0  0  0  0  0  0  0  0  0
   92.3803   50.7639  270.0713 H   0  0  0  0  0  0  0  0  0  0  0  0
   92.9244   52.9386  271.1157 H   0  0  0  0  0  0  0  0  0  0  0  0
   94.4643   54.5079  269.9827 H   0  0  0  0  0  0  0  0  0  0  0  0
   94.8531   51.7773  266.7147 H   0  0  0  0  0  0  0  0  0  0  0  0
   91.4112   47.5303  264.0084 H   0  0  0  0  0  0  0  0  0  0  0  0
   88.2299   45.3980  262.3274 H   0  0  0  0  0  0  0  0  0  0  0  0
   86.8932   45.6563  264.3778 H   0  0  0  0  0  0  0  0  0  0  0  0
   87.8828   45.5754  268.9849 H   0  0  0  0  0  0  0  0  0  0  0  0
   88.3143   44.6342  267.5171 H   0  0  0  0  0  0  0  0  0  0  0  0
   89.4189   45.9167  268.1187 H   0  0  0  0  0  0  0  0  0  0  0  0
  1  4  2  0  0  0  0
  1  6  1  0  0  0  0
  1 11  1  0  0  0  0
  2  3  1  0  0  0  0
  2  5  2  0  0  0  0
  3  4  1  0  0  0  0
  3 17  2  3  0  0  0
  5  6  1  0  0  0  0
  5 10  1  0  0  0  0
  6  7  1  0  0  0  0
  7  8  2  0  0  0  0
  8  9  1  0  0  0  0
  9 10  2  0  0  0  0
 11 12  2  0  0  0  0
 11 16  1  0  0  0  0
 12 13  1  0  0  0  0
 13 14  2  0  0  0  0
 14 15  1  0  0  0  0
 15 16  2  0  0  0  0
 15 28  1  0  0  0  0
 17 18  1  0  0  0  0
 18 19  2  0  0  0  0
 18 23  1  0  0  0  0
 19 20  1  0  0  0  0
 20 21  2  0  0  0  0
 21 22  1  0  0  0  0
 22 23  2  0  0  0  0
 23 24  1  0  0  0  0
 24 25  2  0  0  0  0
 24 26  2  0  0  0  0
 24 27  1  0  0  0  0
  2 29  1  0  0  0  0
  4 30  1  0  0  0  0
  6 31  1  0  0  0  0
  8 32  1  0  0  0  0
  9 33  1  0  0  0  0
 12 34  1  0  0  0  0
 13 35  1  0  0  0  0
 14 36  1  0  0  0  0
 16 37  1  0  0  0  0
 19 38  1  0  0  0  0
 21 39  1  0  0  0  0
 22 40  1  0  0  0  0
 27 41  1  0  0  0  0
 27 42  1  0  0  0  0
 27 43  1  0  0  0  0
M  END
> <ID>
43

> <IC50[uM]>
1.373

$$$$
43
  -OEChem-05192314313D
 Structure written by MMmdl.
 43 46  0     0  0  0  0  0  0999 V2000
   93.2801   49.7948  267.6926 C   0  0  0  0  0  0  0  0  0  0  0  0
   92.5697   47.3273  266.4879 C   0  0  0  0  0  0  0  0  0  0  0  0
   91.6101   48.3227  266.6794 C   0  0  0  0  0  0  0  0  0  0  0  0
   91.9699   49.5231  267.2872 C   0  0  0  0  0  0  0  0  0  0  0  0
   93.8968   47.5279  266.9313 C   0  0  0  0  0  0  0  0  0  0  0  0
   94.2695   48.7730  267.5260 C   0  0  0  0  0  0  0  0  0  0  0  0
   95.5576   48.9586  267.9485 N   0  0  0  0  0  0  0  0  0  0  0  0
   96.4495   47.9531  267.7601 C   0  0  0  0  0  0  0  0  0  0  0  0
   96.0662   46.7381  267.2124 C   0  0  0  0  0  0  0  0  0  0  0  0
   94.7965   46.5169  266.7871 N   0  0  0  0  0  0  0  0  0  0  0  0
   93.5926   51.1080  268.3254 C   0  0  0  0  0  0  0  0  0  0  0  0
   93.0431   51.4518  269.5675 C   0  0  0  0  0  0  0  0  0  0  0  0
   93.3489   52.6803  270.1568 C   0  0  0  0  0  0  0  0  0  0  0  0
   94.2002   53.5732  269.5104 C   0  0  0  0  0  0  0  0  0  0  0  0
   94.7102   53.2574  268.2528 C   0  0  0  0  0  0  0  0  0  0  0  0
   94.4268   52.0279  267.6749 C   0  0  0  0  0  0  0  0  0  0  0  0
   90.2713   48.1126  266.3137 N   0  0  0  0  0  0  0  0  0  0  0  0
   89.7145   47.3382  265.2871 C   0  0  0  0  0  0  0  0  0  0  0  0
   90.4125   47.1278  264.0926 C   0  0  0  0  0  0  0  0  0  0  0  0
   89.9049   46.4459  263.0330 N   0  0  0  0  0  0  0  0  0  0  0  0
   88.6524   45.9395  263.1609 C   0  0  0  0  0  0  0  0  0  0  0  0
   87.8830   46.0841  264.3170 C   0  0  0  0  0  0  0  0  0  0  0  0
   88.4216   46.7951  265.3953 C   0  0  0  0  0  0  0  0  0  0  0  0
   87.4809   46.8875  266.9255 S   0  0  0  0  0  0  0  0  0  0  0  0
   86.1229   46.4026  266.6623 O   0  0  0  0  0  0  0  0  0  0  0  0
   87.6858   48.2236  267.4941 O   0  0  0  0  0  0  0  0  0  0  0  0
   88.3659   45.6223  267.9978 C   0  0  0  0  0  0  0  0  0  0  0  0
   95.7702   54.5153  267.3088 Br  0  0  0  0  0  0  0  0  0  0  0  0
   92.2979   46.4027  266.0004 H   0  0  0  0  0  0  0  0  0  0  0  0
   91.2088   50.2716  267.4514 H   0  0  0  0  0  0  0  0  0  0  0  0
   97.2361   48.3548  267.1045 H   0  0  0  0  0  0  0  0  0  0  0  0
   96.8760   47.7272  268.7486 H   0  0  0  0  0  0  0  0  0  0  0  0
   96.7967   45.9478  267.1220 H   0  0  0  0  0  0  0  0  0  0  0  0
   92.3803   50.7639  270.0713 H   0  0  0  0  0  0  0  0  0  0  0  0
   92.9244   52.9386  271.1157 H   0  0  0  0  0  0  0  0  0  0  0  0
   94.4643   54.5079  269.9827 H   0  0  0  0  0  0  0  0  0  0  0  0
   94.8531   51.7773  266.7147 H   0  0  0  0  0  0  0  0  0  0  0  0
   91.4112   47.5303  264.0084 H   0  0  0  0  0  0  0  0  0  0  0  0
   88.2299   45.3980  262.3274 H   0  0  0  0  0  0  0  0  0  0  0  0
   86.8932   45.6563  264.3778 H   0  0  0  0  0  0  0  0  0  0  0  0
   87.8828   45.5754  268.9849 H   0  0  0  0  0  0  0  0  0  0  0  0
   88.3143   44.6342  267.5171 H   0  0  0  0  0  0  0  0  0  0  0  0
   89.4189   45.9167  268.1187 H   0  0  0  0  0  0  0  0  0  0  0  0
  1  4  2  0  0  0  0
  1  6  1  0  0  0  0
  1 11  1  0  0  0  0
  2  3  1  0  0  0  0
  2  5  2  0  0  0  0
  3  4  1  0  0  0  0
  3 17  2  3  0  0  0
  5  6  1  0  0  0  0
  5 10  1  0  0  0  0
  6  7  2  0  0  0  0
  7  8  1  0  0  0  0
  8  9  1  0  0  0  0
  9 10  2  0  0  0  0
 11 12  2  0  0  0  0
 11 16  1  0  0  0  0
 12 13  1  0  0  0  0
 13 14  2  0  0  0  0
 14 15  1  0  0  0  0
 15 16  2  0  0  0  0
 15 28  1  0  0  0  0
 17 18  1  0  0  0  0
 18 19  2  0  0  0  0
 18 23  1  0  0  0  0
 19 20  1  0  0  0  0
 20 21  2  0  0  0  0
 21 22  1  0  0  0  0
 22 23  2  0  0  0  0
 23 24  1  0  0  0  0
 24 25  2  0  0  0  0
 24 26  2  0  0  0  0
 24 27  1  0  0  0  0
  2 29  1  0  0  0  0
  4 30  1  0  0  0  0
  8 31  1  0  0  0  0
  8 32  1  0  0  0  0
  9 33  1  0  0  0  0
 12 34  1  0  0  0  0
 13 35  1  0  0  0  0
 14 36  1  0  0  0  0
 16 37  1  0  0  0  0
 19 38  1  0  0  0  0
 21 39  1  0  0  0  0
 22 40  1  0  0  0  0
 27 41  1  0  0  0  0
 27 42  1  0  0  0  0
 27 43  1  0  0  0  0
M  END
> <ID>
43

> <IC50[uM]>
1.373

$$$$
