34
  -OEChem-05192314323D
 Structure written by MMmdl.
 48 52  0     0  0  0  0  0  0999 V2000
   92.5675   47.3476  266.4818 C   0  0  0  0  0  0  0  0  0  0  0  0
   91.6195   48.3446  266.6702 C   0  0  0  0  0  0  0  0  0  0  0  0
   91.9774   49.5404  267.2822 C   0  0  0  0  0  0  0  0  0  0  0  0
   93.2882   49.8046  267.6879 C   0  0  0  0  0  0  0  0  0  0  0  0
   94.2739   48.7854  267.5113 C   0  0  0  0  0  0  0  0  0  0  0  0
   93.8948   47.5437  266.9102 C   0  0  0  0  0  0  0  0  0  0  0  0
   94.7936   46.5330  266.7587 N   0  0  0  0  0  0  0  0  0  0  0  0
   95.5623   48.9682  267.9318 N   0  0  0  0  0  0  0  0  0  0  0  0
   96.4466   47.9594  267.7367 C   0  0  0  0  0  0  0  0  0  0  0  0
   96.0613   46.7461  267.1800 C   0  0  0  0  0  0  0  0  0  0  0  0
   90.2825   48.1494  266.3000 N   0  0  0  0  0  0  0  0  0  0  0  0
   93.5910   51.1031  268.3371 C   0  0  0  0  0  0  0  0  0  0  0  0
   94.5701   51.9487  267.7934 C   0  0  0  0  0  0  0  0  0  0  0  0
   94.8764   53.1831  268.3626 C   0  0  0  0  0  0  0  0  0  0  0  0
   94.1738   53.5765  269.5033 C   0  0  0  0  0  0  0  0  0  0  0  0
   93.2106   52.6774  270.0808 C   0  0  0  0  0  0  0  0  0  0  0  0
   92.8955   51.4555  269.4914 C   0  0  0  0  0  0  0  0  0  0  0  0
   94.1940   54.7417  270.3236 C   0  0  0  0  0  0  0  0  0  0  0  0
   93.3211   54.5038  271.3418 C   0  0  0  0  0  0  0  0  0  0  0  0
   92.7601   53.2789  271.2412 N   0  0  0  0  0  0  0  0  0  0  0  0
   89.7058   47.3516  265.2944 C   0  0  0  0  0  0  0  0  0  0  0  0
   91.8506   52.7297  272.2448 C   0  0  0  0  0  0  0  0  0  0  0  0
   88.4003   46.8132  265.3997 C   0  0  0  0  0  0  0  0  0  0  0  0
   87.8903   46.1026  264.3004 C   0  0  0  0  0  0  0  0  0  0  0  0
   88.6717   45.9405  263.1626 C   0  0  0  0  0  0  0  0  0  0  0  0
   89.9225   46.4384  263.0456 N   0  0  0  0  0  0  0  0  0  0  0  0
   90.4118   47.1270  264.1049 C   0  0  0  0  0  0  0  0  0  0  0  0
   87.5461   46.9593  266.6443 C   0  0  0  0  0  0  0  0  0  0  0  0
   86.6807   45.9742  266.8909 N   0  0  0  0  0  0  0  0  0  0  0  0
   87.6482   47.9220  267.4000 O   0  0  0  0  0  0  0  0  0  0  0  0
   92.2864   46.4198  266.0058 H   0  0  0  0  0  0  0  0  0  0  0  0
   91.2177   50.2895  267.4495 H   0  0  0  0  0  0  0  0  0  0  0  0
   97.4784   48.1027  268.0217 H   0  0  0  0  0  0  0  0  0  0  0  0
   96.7903   45.9554  267.0814 H   0  0  0  0  0  0  0  0  0  0  0  0
   89.6232   48.6671  266.8452 H   0  0  0  0  0  0  0  0  0  0  0  0
   95.1018   51.6335  266.9078 H   0  0  0  0  0  0  0  0  0  0  0  0
   95.6368   53.8185  267.9330 H   0  0  0  0  0  0  0  0  0  0  0  0
   92.1417   50.8069  269.9127 H   0  0  0  0  0  0  0  0  0  0  0  0
   94.7829   55.6337  270.1690 H   0  0  0  0  0  0  0  0  0  0  0  0
   93.1042   55.2074  272.1319 H   0  0  0  0  0  0  0  0  0  0  0  0
   91.6974   53.4686  273.0451 H   0  0  0  0  0  0  0  0  0  0  0  0
   90.8848   52.4936  271.7742 H   0  0  0  0  0  0  0  0  0  0  0  0
   92.2848   51.8130  272.6705 H   0  0  0  0  0  0  0  0  0  0  0  0
   86.8954   45.6841  264.3393 H   0  0  0  0  0  0  0  0  0  0  0  0
   88.2588   45.3893  262.3307 H   0  0  0  0  0  0  0  0  0  0  0  0
   91.4112   47.5291  264.0275 H   0  0  0  0  0  0  0  0  0  0  0  0
   86.0996   46.0110  267.7039 H   0  0  0  0  0  0  0  0  0  0  0  0
   86.6132   45.1991  266.2627 H   0  0  0  0  0  0  0  0  0  0  0  0
  1  2  2  0  0  0  0
  1  6  1  0  0  0  0
  2  3  1  0  0  0  0
  2 11  1  0  0  0  0
  3  4  2  0  0  0  0
  4  5  1  0  0  0  0
  4 12  1  0  0  0  0
  5  6  2  0  0  0  0
  5  8  1  0  0  0  0
  6  7  1  0  0  0  0
  7 10  2  0  0  0  0
  8  9  2  0  0  0  0
  9 10  1  0  0  0  0
 11 21  1  0  0  0  0
 12 13  2  0  0  0  0
 12 17  1  0  0  0  0
 13 14  1  0  0  0  0
 14 15  2  0  0  0  0
 15 18  1  0  0  0  0
 15 16  1  0  0  0  0
 16 17  2  0  0  0  0
 16 20  1  0  0  0  0
 18 19  2  0  0  0  0
 19 20  1  0  0  0  0
 20 22  1  0  0  0  0
 21 27  2  0  0  0  0
 21 23  1  0  0  0  0
 23 24  2  0  0  0  0
 23 28  1  0  0  0  0
 24 25  1  0  0  0  0
 25 26  2  0  0  0  0
 26 27  1  0  0  0  0
 28 29  1  0  0  0  0
 28 30  2  0  0  0  0
  1 31  1  0  0  0  0
  3 32  1  0  0  0  0
  9 33  1  0  0  0  0
 10 34  1  0  0  0  0
 11 35  1  0  0  0  0
 13 36  1  0  0  0  0
 14 37  1  0  0  0  0
 17 38  1  0  0  0  0
 18 39  1  0  0  0  0
 19 40  1  0  0  0  0
 22 41  1  0  0  0  0
 22 42  1  0  0  0  0
 22 43  1  0  0  0  0
 24 44  1  0  0  0  0
 25 45  1  0  0  0  0
 27 46  1  0  0  0  0
 29 47  1  0  0  0  0
 29 48  1  0  0  0  0
M  END
> <ID>
34

> <IC50[uM]>
0.049

$$$$
34
  -OEChem-05192314323D
 Structure written by MMmdl.
 48 52  0     0  0  0  0  0  0999 V2000
   92.5675   47.3476  266.4818 C   0  0  0  0  0  0  0  0  0  0  0  0
   91.6195   48.3446  266.6702 C   0  0  0  0  0  0  0  0  0  0  0  0
   91.9774   49.5404  267.2822 C   0  0  0  0  0  0  0  0  0  0  0  0
   93.2882   49.8046  267.6879 C   0  0  0  0  0  0  0  0  0  0  0  0
   94.2739   48.7854  267.5113 C   0  0  0  0  0  0  0  0  0  0  0  0
   93.8948   47.5437  266.9102 C   0  0  0  0  0  0  0  0  0  0  0  0
   94.7936   46.5330  266.7587 N   0  0  0  0  0  0  0  0  0  0  0  0
   95.5623   48.9682  267.9318 N   0  0  0  0  0  0  0  0  0  0  0  0
   96.4466   47.9594  267.7367 C   0  0  0  0  0  0  0  0  0  0  0  0
   96.0613   46.7461  267.1800 C   0  0  0  0  0  0  0  0  0  0  0  0
   90.2825   48.1494  266.3000 N   0  0  0  0  0  0  0  0  0  0  0  0
   93.5910   51.1031  268.3371 C   0  0  0  0  0  0  0  0  0  0  0  0
   94.5701   51.9487  267.7934 C   0  0  0  0  0  0  0  0  0  0  0  0
   94.8764   53.1831  268.3626 C   0  0  0  0  0  0  0  0  0  0  0  0
   94.1738   53.5765  269.5033 C   0  0  0  0  0  0  0  0  0  0  0  0
   93.2106   52.6774  270.0808 C   0  0  0  0  0  0  0  0  0  0  0  0
   92.8955   51.4555  269.4914 C   0  0  0  0  0  0  0  0  0  0  0  0
   94.1940   54.7417  270.3236 C   0  0  0  0  0  0  0  0  0  0  0  0
   93.3211   54.5038  271.3418 C   0  0  0  0  0  0  0  0  0  0  0  0
   92.7601   53.2789  271.2412 N   0  0  0  0  0  0  0  0  0  0  0  0
   89.7058   47.3516  265.2944 C   0  0  0  0  0  0  0  0  0  0  0  0
   91.8506   52.7297  272.2448 C   0  0  0  0  0  0  0  0  0  0  0  0
   88.4003   46.8132  265.3997 C   0  0  0  0  0  0  0  0  0  0  0  0
   87.8903   46.1026  264.3004 C   0  0  0  0  0  0  0  0  0  0  0  0
   88.6717   45.9405  263.1626 C   0  0  0  0  0  0  0  0  0  0  0  0
   89.9225   46.4384  263.0456 N   0  0  0  0  0  0  0  0  0  0  0  0
   90.4118   47.1270  264.1049 C   0  0  0  0  0  0  0  0  0  0  0  0
   87.5461   46.9593  266.6443 C   0  0  0  0  0  0  0  0  0  0  0  0
   86.6807   45.9742  266.8909 N   0  0  0  0  0  0  0  0  0  0  0  0
   87.6482   47.9220  267.4000 O   0  0  0  0  0  0  0  0  0  0  0  0
   92.2864   46.4198  266.0058 H   0  0  0  0  0  0  0  0  0  0  0  0
   91.2177   50.2895  267.4495 H   0  0  0  0  0  0  0  0  0  0  0  0
   97.4784   48.1027  268.0217 H   0  0  0  0  0  0  0  0  0  0  0  0
   96.7903   45.9554  267.0814 H   0  0  0  0  0  0  0  0  0  0  0  0
   89.6232   48.6671  266.8452 H   0  0  0  0  0  0  0  0  0  0  0  0
   95.1018   51.6335  266.9078 H   0  0  0  0  0  0  0  0  0  0  0  0
   95.6368   53.8185  267.9330 H   0  0  0  0  0  0  0  0  0  0  0  0
   92.1417   50.8069  269.9127 H   0  0  0  0  0  0  0  0  0  0  0  0
   94.7829   55.6337  270.1690 H   0  0  0  0  0  0  0  0  0  0  0  0
   93.1042   55.2074  272.1319 H   0  0  0  0  0  0  0  0  0  0  0  0
   91.6974   53.4686  273.0451 H   0  0  0  0  0  0  0  0  0  0  0  0
   90.8848   52.4936  271.7742 H   0  0  0  0  0  0  0  0  0  0  0  0
   92.2848   51.8130  272.6705 H   0  0  0  0  0  0  0  0  0  0  0  0
   86.8954   45.6841  264.3393 H   0  0  0  0  0  0  0  0  0  0  0  0
   88.2588   45.3893  262.3307 H   0  0  0  0  0  0  0  0  0  0  0  0
   91.4112   47.5291  264.0275 H   0  0  0  0  0  0  0  0  0  0  0  0
   86.1628   46.1323  267.7316 H   0  0  0  0  0  0  0  0  0  0  0  0
   87.0312   47.8296  268.1164 H   0  0  0  0  0  0  0  0  0  0  0  0
  1  2  2  0  0  0  0
  1  6  1  0  0  0  0
  2  3  1  0  0  0  0
  2 11  1  0  0  0  0
  3  4  2  0  0  0  0
  4  5  1  0  0  0  0
  4 12  1  0  0  0  0
  5  6  2  0  0  0  0
  5  8  1  0  0  0  0
  6  7  1  0  0  0  0
  7 10  2  0  0  0  0
  8  9  2  0  0  0  0
  9 10  1  0  0  0  0
 11 21  1  0  0  0  0
 12 13  2  0  0  0  0
 12 17  1  0  0  0  0
 13 14  1  0  0  0  0
 14 15  2  0  0  0  0
 15 18  1  0  0  0  0
 15 16  1  0  0  0  0
 16 17  2  0  0  0  0
 16 20  1  0  0  0  0
 18 19  2  0  0  0  0
 19 20  1  0  0  0  0
 20 22  1  0  0  0  0
 21 27  2  0  0  0  0
 21 23  1  0  0  0  0
 23 24  2  0  0  0  0
 23 28  1  0  0  0  0
 24 25  1  0  0  0  0
 25 26  2  0  0  0  0
 26 27  1  0  0  0  0
 28 29  2  0  0  0  0
 28 30  1  0  0  0  0
  1 31  1  0  0  0  0
  3 32  1  0  0  0  0
  9 33  1  0  0  0  0
 10 34  1  0  0  0  0
 11 35  1  0  0  0  0
 13 36  1  0  0  0  0
 14 37  1  0  0  0  0
 17 38  1  0  0  0  0
 18 39  1  0  0  0  0
 19 40  1  0  0  0  0
 22 41  1  0  0  0  0
 22 42  1  0  0  0  0
 22 43  1  0  0  0  0
 24 44  1  0  0  0  0
 25 45  1  0  0  0  0
 27 46  1  0  0  0  0
 29 47  1  0  0  0  0
 30 48  1  0  0  0  0
M  END
> <ID>
34

> <IC50[uM]>
0.049

$$$$
34
  -OEChem-05192314323D
 Structure written by MMmdl.
 48 52  0     0  0  0  0  0  0999 V2000
   92.5675   47.3476  266.4818 C   0  0  0  0  0  0  0  0  0  0  0  0
   91.6195   48.3446  266.6702 C   0  0  0  0  0  0  0  0  0  0  0  0
   91.9774   49.5404  267.2822 C   0  0  0  0  0  0  0  0  0  0  0  0
   93.2882   49.8046  267.6879 C   0  0  0  0  0  0  0  0  0  0  0  0
   94.2739   48.7854  267.5113 C   0  0  0  0  0  0  0  0  0  0  0  0
   93.8948   47.5437  266.9102 C   0  0  0  0  0  0  0  0  0  0  0  0
   94.7936   46.5330  266.7587 N   0  0  0  0  0  0  0  0  0  0  0  0
   95.5623   48.9682  267.9318 N   0  0  0  0  0  0  0  0  0  0  0  0
   96.4466   47.9594  267.7367 C   0  0  0  0  0  0  0  0  0  0  0  0
   96.0613   46.7461  267.1800 C   0  0  0  0  0  0  0  0  0  0  0  0
   90.2825   48.1494  266.3000 N   0  0  0  0  0  0  0  0  0  0  0  0
   93.5910   51.1031  268.3371 C   0  0  0  0  0  0  0  0  0  0  0  0
   94.5701   51.9487  267.7934 C   0  0  0  0  0  0  0  0  0  0  0  0
   94.8764   53.1831  268.3626 C   0  0  0  0  0  0  0  0  0  0  0  0
   94.1738   53.5765  269.5033 C   0  0  0  0  0  0  0  0  0  0  0  0
   93.2106   52.6774  270.0808 C   0  0  0  0  0  0  0  0  0  0  0  0
   92.8955   51.4555  269.4914 C   0  0  0  0  0  0  0  0  0  0  0  0
   94.1940   54.7417  270.3236 C   0  0  0  0  0  0  0  0  0  0  0  0
   93.3211   54.5038  271.3418 C   0  0  0  0  0  0  0  0  0  0  0  0
   92.7601   53.2789  271.2412 N   0  0  0  0  0  0  0  0  0  0  0  0
   89.7058   47.3516  265.2944 C   0  0  0  0  0  0  0  0  0  0  0  0
   91.8506   52.7297  272.2448 C   0  0  0  0  0  0  0  0  0  0  0  0
   88.4003   46.8132  265.3997 C   0  0  0  0  0  0  0  0  0  0  0  0
   87.8903   46.1026  264.3004 C   0  0  0  0  0  0  0  0  0  0  0  0
   88.6717   45.9405  263.1626 C   0  0  0  0  0  0  0  0  0  0  0  0
   89.9225   46.4384  263.0456 N   0  0  0  0  0  0  0  0  0  0  0  0
   90.4118   47.1270  264.1049 C   0  0  0  0  0  0  0  0  0  0  0  0
   87.5461   46.9593  266.6443 C   0  0  0  0  0  0  0  0  0  0  0  0
   86.6807   45.9742  266.8909 N   0  0  0  0  0  0  0  0  0  0  0  0
   87.6482   47.9220  267.4000 O   0  0  0  0  0  0  0  0  0  0  0  0
   92.2864   46.4198  266.0058 H   0  0  0  0  0  0  0  0  0  0  0  0
   91.2177   50.2895  267.4495 H   0  0  0  0  0  0  0  0  0  0  0  0
   94.5255   45.6610  266.3492 H   0  0  0  0  0  0  0  0  0  0  0  0
   97.4784   48.1027  268.0217 H   0  0  0  0  0  0  0  0  0  0  0  0
   96.7903   45.9554  267.0814 H   0  0  0  0  0  0  0  0  0  0  0  0
   95.1018   51.6335  266.9078 H   0  0  0  0  0  0  0  0  0  0  0  0
   95.6368   53.8185  267.9330 H   0  0  0  0  0  0  0  0  0  0  0  0
   92.1417   50.8069  269.9127 H   0  0  0  0  0  0  0  0  0  0  0  0
   94.7829   55.6337  270.1690 H   0  0  0  0  0  0  0  0  0  0  0  0
   93.1042   55.2074  272.1319 H   0  0  0  0  0  0  0  0  0  0  0  0
   91.6974   53.4686  273.0451 H   0  0  0  0  0  0  0  0  0  0  0  0
   90.8848   52.4936  271.7742 H   0  0  0  0  0  0  0  0  0  0  0  0
   92.2848   51.8130  272.6705 H   0  0  0  0  0  0  0  0  0  0  0  0
   86.8954   45.6841  264.3393 H   0  0  0  0  0  0  0  0  0  0  0  0
   88.2588   45.3893  262.3307 H   0  0  0  0  0  0  0  0  0  0  0  0
   91.4112   47.5291  264.0275 H   0  0  0  0  0  0  0  0  0  0  0  0
   86.0996   46.0110  267.7039 H   0  0  0  0  0  0  0  0  0  0  0  0
   86.6132   45.1991  266.2627 H   0  0  0  0  0  0  0  0  0  0  0  0
  1  2  1  0  0  0  0
  1  6  2  0  0  0  0
  2  3  1  0  0  0  0
  2 11  2  0  0  0  0
  3  4  2  0  0  0  0
  4  5  1  0  0  0  0
  4 12  1  0  0  0  0
  5  6  1  0  0  0  0
  5  8  2  0  0  0  0
  6  7  1  0  0  0  0
  7 10  1  0  0  0  0
  8  9  1  0  0  0  0
  9 10  2  0  0  0  0
 11 21  1  0  0  0  0
 12 13  2  0  0  0  0
 12 17  1  0  0  0  0
 13 14  1  0  0  0  0
 14 15  2  0  0  0  0
 15 18  1  0  0  0  0
 15 16  1  0  0  0  0
 16 17  2  0  0  0  0
 16 20  1  0  0  0  0
 18 19  2  0  0  0  0
 19 20  1  0  0  0  0
 20 22  1  0  0  0  0
 21 27  2  0  0  0  0
 21 23  1  0  0  0  0
 23 24  2  0  0  0  0
 23 28  1  0  0  0  0
 24 25  1  0  0  0  0
 25 26  2  0  0  0  0
 26 27  1  0  0  0  0
 28 29  1  0  0  0  0
 28 30  2  0  0  0  0
  1 31  1  0  0  0  0
  3 32  1  0  0  0  0
  7 33  1  0  0  0  0
  9 34  1  0  0  0  0
 10 35  1  0  0  0  0
 13 36  1  0  0  0  0
 14 37  1  0  0  0  0
 17 38  1  0  0  0  0
 18 39  1  0  0  0  0
 19 40  1  0  0  0  0
 22 41  1  0  0  0  0
 22 42  1  0  0  0  0
 22 43  1  0  0  0  0
 24 44  1  0  0  0  0
 25 45  1  0  0  0  0
 27 46  1  0  0  0  0
 29 47  1  0  0  0  0
 29 48  1  0  0  0  0
M  END
> <ID>
34

> <IC50[uM]>
0.049

$$$$
34
  -OEChem-05192314323D
 Structure written by MMmdl.
 48 52  0     0  0  0  0  0  0999 V2000
   92.5675   47.3476  266.4818 C   0  0  0  0  0  0  0  0  0  0  0  0
   91.6195   48.3446  266.6702 C   0  0  0  0  0  0  0  0  0  0  0  0
   91.9774   49.5404  267.2822 C   0  0  0  0  0  0  0  0  0  0  0  0
   93.2882   49.8046  267.6879 C   0  0  0  0  0  0  0  0  0  0  0  0
   94.2739   48.7854  267.5113 C   0  0  0  0  0  0  0  0  0  0  0  0
   93.8948   47.5437  266.9102 C   0  0  0  0  0  0  0  0  0  0  0  0
   94.7936   46.5330  266.7587 N   0  0  0  0  0  0  0  0  0  0  0  0
   95.5623   48.9682  267.9318 N   0  0  0  0  0  0  0  0  0  0  0  0
   96.4466   47.9594  267.7367 C   0  0  0  0  0  0  0  0  0  0  0  0
   96.0613   46.7461  267.1800 C   0  0  0  0  0  0  0  0  0  0  0  0
   90.2825   48.1494  266.3000 N   0  0  0  0  0  0  0  0  0  0  0  0
   93.5910   51.1031  268.3371 C   0  0  0  0  0  0  0  0  0  0  0  0
   94.5701   51.9487  267.7934 C   0  0  0  0  0  0  0  0  0  0  0  0
   94.8764   53.1831  268.3626 C   0  0  0  0  0  0  0  0  0  0  0  0
   94.1738   53.5765  269.5033 C   0  0  0  0  0  0  0  0  0  0  0  0
   93.2106   52.6774  270.0808 C   0  0  0  0  0  0  0  0  0  0  0  0
   92.8955   51.4555  269.4914 C   0  0  0  0  0  0  0  0  0  0  0  0
   94.1940   54.7417  270.3236 C   0  0  0  0  0  0  0  0  0  0  0  0
   93.3211   54.5038  271.3418 C   0  0  0  0  0  0  0  0  0  0  0  0
   92.7601   53.2789  271.2412 N   0  0  0  0  0  0  0  0  0  0  0  0
   89.7058   47.3516  265.2944 C   0  0  0  0  0  0  0  0  0  0  0  0
   91.8506   52.7297  272.2448 C   0  0  0  0  0  0  0  0  0  0  0  0
   88.4003   46.8132  265.3997 C   0  0  0  0  0  0  0  0  0  0  0  0
   87.8903   46.1026  264.3004 C   0  0  0  0  0  0  0  0  0  0  0  0
   88.6717   45.9405  263.1626 C   0  0  0  0  0  0  0  0  0  0  0  0
   89.9225   46.4384  263.0456 N   0  0  0  0  0  0  0  0  0  0  0  0
   90.4118   47.1270  264.1049 C   0  0  0  0  0  0  0  0  0  0  0  0
   87.5461   46.9593  266.6443 C   0  0  0  0  0  0  0  0  0  0  0  0
   86.6807   45.9742  266.8909 N   0  0  0  0  0  0  0  0  0  0  0  0
   87.6482   47.9220  267.4000 O   0  0  0  0  0  0  0  0  0  0  0  0
   92.2864   46.4198  266.0058 H   0  0  0  0  0  0  0  0  0  0  0  0
   91.2177   50.2895  267.4495 H   0  0  0  0  0  0  0  0  0  0  0  0
   94.5255   45.6610  266.3492 H   0  0  0  0  0  0  0  0  0  0  0  0
   97.4784   48.1027  268.0217 H   0  0  0  0  0  0  0  0  0  0  0  0
   96.7903   45.9554  267.0814 H   0  0  0  0  0  0  0  0  0  0  0  0
   95.1018   51.6335  266.9078 H   0  0  0  0  0  0  0  0  0  0  0  0
   95.6368   53.8185  267.9330 H   0  0  0  0  0  0  0  0  0  0  0  0
   92.1417   50.8069  269.9127 H   0  0  0  0  0  0  0  0  0  0  0  0
   94.7829   55.6337  270.1690 H   0  0  0  0  0  0  0  0  0  0  0  0
   93.1042   55.2074  272.1319 H   0  0  0  0  0  0  0  0  0  0  0  0
   91.6974   53.4686  273.0451 H   0  0  0  0  0  0  0  0  0  0  0  0
   90.8848   52.4936  271.7742 H   0  0  0  0  0  0  0  0  0  0  0  0
   92.2848   51.8130  272.6705 H   0  0  0  0  0  0  0  0  0  0  0  0
   86.8954   45.6841  264.3393 H   0  0  0  0  0  0  0  0  0  0  0  0
   88.2588   45.3893  262.3307 H   0  0  0  0  0  0  0  0  0  0  0  0
   91.4112   47.5291  264.0275 H   0  0  0  0  0  0  0  0  0  0  0  0
   86.1628   46.1323  267.7316 H   0  0  0  0  0  0  0  0  0  0  0  0
   87.0312   47.8296  268.1164 H   0  0  0  0  0  0  0  0  0  0  0  0
  1  2  1  0  0  0  0
  1  6  2  0  0  0  0
  2  3  1  0  0  0  0
  2 11  2  0  0  0  0
  3  4  2  0  0  0  0
  4  5  1  0  0  0  0
  4 12  1  0  0  0  0
  5  6  1  0  0  0  0
  5  8  2  0  0  0  0
  6  7  1  0  0  0  0
  7 10  1  0  0  0  0
  8  9  1  0  0  0  0
  9 10  2  0  0  0  0
 11 21  1  0  0  0  0
 12 13  2  0  0  0  0
 12 17  1  0  0  0  0
 13 14  1  0  0  0  0
 14 15  2  0  0  0  0
 15 18  1  0  0  0  0
 15 16  1  0  0  0  0
 16 17  2  0  0  0  0
 16 20  1  0  0  0  0
 18 19  2  0  0  0  0
 19 20  1  0  0  0  0
 20 22  1  0  0  0  0
 21 27  2  0  0  0  0
 21 23  1  0  0  0  0
 23 24  2  0  0  0  0
 23 28  1  0  0  0  0
 24 25  1  0  0  0  0
 25 26  2  0  0  0  0
 26 27  1  0  0  0  0
 28 29  2  0  0  0  0
 28 30  1  0  0  0  0
  1 31  1  0  0  0  0
  3 32  1  0  0  0  0
  7 33  1  0  0  0  0
  9 34  1  0  0  0  0
 10 35  1  0  0  0  0
 13 36  1  0  0  0  0
 14 37  1  0  0  0  0
 17 38  1  0  0  0  0
 18 39  1  0  0  0  0
 19 40  1  0  0  0  0
 22 41  1  0  0  0  0
 22 42  1  0  0  0  0
 22 43  1  0  0  0  0
 24 44  1  0  0  0  0
 25 45  1  0  0  0  0
 27 46  1  0  0  0  0
 29 47  1  0  0  0  0
 30 48  1  0  0  0  0
M  END
> <ID>
34

> <IC50[uM]>
0.049

$$$$
34
  -OEChem-05192314323D
 Structure written by MMmdl.
 48 52  0     0  0  0  0  0  0999 V2000
   92.5675   47.3476  266.4818 C   0  0  0  0  0  0  0  0  0  0  0  0
   91.6195   48.3446  266.6702 C   0  0  0  0  0  0  0  0  0  0  0  0
   91.9774   49.5404  267.2822 C   0  0  0  0  0  0  0  0  0  0  0  0
   93.2882   49.8046  267.6879 C   0  0  0  0  0  0  0  0  0  0  0  0
   94.2739   48.7854  267.5113 C   0  0  0  0  0  0  0  0  0  0  0  0
   93.8948   47.5437  266.9102 C   0  0  0  0  0  0  0  0  0  0  0  0
   94.7936   46.5330  266.7587 N   0  0  0  0  0  0  0  0  0  0  0  0
   95.5623   48.9682  267.9318 N   0  0  0  0  0  0  0  0  0  0  0  0
   96.4466   47.9594  267.7367 C   0  0  0  0  0  0  0  0  0  0  0  0
   96.0613   46.7461  267.1800 C   0  0  0  0  0  0  0  0  0  0  0  0
   90.2825   48.1494  266.3000 N   0  0  0  0  0  0  0  0  0  0  0  0
   93.5910   51.1031  268.3371 C   0  0  0  0  0  0  0  0  0  0  0  0
   94.5701   51.9487  267.7934 C   0  0  0  0  0  0  0  0  0  0  0  0
   94.8764   53.1831  268.3626 C   0  0  0  0  0  0  0  0  0  0  0  0
   94.1738   53.5765  269.5033 C   0  0  0  0  0  0  0  0  0  0  0  0
   93.2106   52.6774  270.0808 C   0  0  0  0  0  0  0  0  0  0  0  0
   92.8955   51.4555  269.4914 C   0  0  0  0  0  0  0  0  0  0  0  0
   94.1940   54.7417  270.3236 C   0  0  0  0  0  0  0  0  0  0  0  0
   93.3211   54.5038  271.3418 C   0  0  0  0  0  0  0  0  0  0  0  0
   92.7601   53.2789  271.2412 N   0  0  0  0  0  0  0  0  0  0  0  0
   89.7058   47.3516  265.2944 C   0  0  0  0  0  0  0  0  0  0  0  0
   91.8506   52.7297  272.2448 C   0  0  0  0  0  0  0  0  0  0  0  0
   88.4003   46.8132  265.3997 C   0  0  0  0  0  0  0  0  0  0  0  0
   87.8903   46.1026  264.3004 C   0  0  0  0  0  0  0  0  0  0  0  0
   88.6717   45.9405  263.1626 C   0  0  0  0  0  0  0  0  0  0  0  0
   89.9225   46.4384  263.0456 N   0  0  0  0  0  0  0  0  0  0  0  0
   90.4118   47.1270  264.1049 C   0  0  0  0  0  0  0  0  0  0  0  0
   87.5461   46.9593  266.6443 C   0  0  0  0  0  0  0  0  0  0  0  0
   86.6807   45.9742  266.8909 N   0  0  0  0  0  0  0  0  0  0  0  0
   87.6482   47.9220  267.4000 O   0  0  0  0  0  0  0  0  0  0  0  0
   92.1950   46.4536  267.0034 H   0  0  0  0  0  0  0  0  0  0  0  0
   92.6094   47.1505  265.4004 H   0  0  0  0  0  0  0  0  0  0  0  0
   91.2177   50.2895  267.4495 H   0  0  0  0  0  0  0  0  0  0  0  0
   97.4784   48.1027  268.0217 H   0  0  0  0  0  0  0  0  0  0  0  0
   96.7903   45.9554  267.0814 H   0  0  0  0  0  0  0  0  0  0  0  0
   95.1018   51.6335  266.9078 H   0  0  0  0  0  0  0  0  0  0  0  0
   95.6368   53.8185  267.9330 H   0  0  0  0  0  0  0  0  0  0  0  0
   92.1417   50.8069  269.9127 H   0  0  0  0  0  0  0  0  0  0  0  0
   94.7829   55.6337  270.1690 H   0  0  0  0  0  0  0  0  0  0  0  0
   93.1042   55.2074  272.1319 H   0  0  0  0  0  0  0  0  0  0  0  0
   91.6974   53.4686  273.0451 H   0  0  0  0  0  0  0  0  0  0  0  0
   90.8848   52.4936  271.7742 H   0  0  0  0  0  0  0  0  0  0  0  0
   92.2848   51.8130  272.6705 H   0  0  0  0  0  0  0  0  0  0  0  0
   86.8954   45.6841  264.3393 H   0  0  0  0  0  0  0  0  0  0  0  0
   88.2588   45.3893  262.3307 H   0  0  0  0  0  0  0  0  0  0  0  0
   91.4112   47.5291  264.0275 H   0  0  0  0  0  0  0  0  0  0  0  0
   86.0996   46.0110  267.7039 H   0  0  0  0  0  0  0  0  0  0  0  0
   86.6132   45.1991  266.2627 H   0  0  0  0  0  0  0  0  0  0  0  0
  1  2  1  0  0  0  0
  1  6  1  0  0  0  0
  2  3  1  0  0  0  0
  2 11  2  0  0  0  0
  3  4  2  0  0  0  0
  4  5  1  0  0  0  0
  4 12  1  0  0  0  0
  5  6  2  0  0  0  0
  5  8  1  0  0  0  0
  6  7  1  0  0  0  0
  7 10  2  0  0  0  0
  8  9  2  0  0  0  0
  9 10  1  0  0  0  0
 11 21  1  0  0  0  0
 12 13  2  0  0  0  0
 12 17  1  0  0  0  0
 13 14  1  0  0  0  0
 14 15  2  0  0  0  0
 15 18  1  0  0  0  0
 15 16  1  0  0  0  0
 16 17  2  0  0  0  0
 16 20  1  0  0  0  0
 18 19  2  0  0  0  0
 19 20  1  0  0  0  0
 20 22  1  0  0  0  0
 21 27  2  0  0  0  0
 21 23  1  0  0  0  0
 23 24  2  0  0  0  0
 23 28  1  0  0  0  0
 24 25  1  0  0  0  0
 25 26  2  0  0  0  0
 26 27  1  0  0  0  0
 28 29  1  0  0  0  0
 28 30  2  0  0  0  0
  1 31  1  0  0  0  0
  1 32  1  0  0  0  0
  3 33  1  0  0  0  0
  9 34  1  0  0  0  0
 10 35  1  0  0  0  0
 13 36  1  0  0  0  0
 14 37  1  0  0  0  0
 17 38  1  0  0  0  0
 18 39  1  0  0  0  0
 19 40  1  0  0  0  0
 22 41  1  0  0  0  0
 22 42  1  0  0  0  0
 22 43  1  0  0  0  0
 24 44  1  0  0  0  0
 25 45  1  0  0  0  0
 27 46  1  0  0  0  0
 29 47  1  0  0  0  0
 29 48  1  0  0  0  0
M  END
> <ID>
34

> <IC50[uM]>
0.049

$$$$
34
  -OEChem-05192314323D
 Structure written by MMmdl.
 48 52  0     0  0  0  0  0  0999 V2000
   92.5675   47.3476  266.4818 C   0  0  0  0  0  0  0  0  0  0  0  0
   91.6195   48.3446  266.6702 C   0  0  0  0  0  0  0  0  0  0  0  0
   91.9774   49.5404  267.2822 C   0  0  0  0  0  0  0  0  0  0  0  0
   93.2882   49.8046  267.6879 C   0  0  0  0  0  0  0  0  0  0  0  0
   94.2739   48.7854  267.5113 C   0  0  0  0  0  0  0  0  0  0  0  0
   93.8948   47.5437  266.9102 C   0  0  0  0  0  0  0  0  0  0  0  0
   94.7936   46.5330  266.7587 N   0  0  0  0  0  0  0  0  0  0  0  0
   95.5623   48.9682  267.9318 N   0  0  0  0  0  0  0  0  0  0  0  0
   96.4466   47.9594  267.7367 C   0  0  0  0  0  0  0  0  0  0  0  0
   96.0613   46.7461  267.1800 C   0  0  0  0  0  0  0  0  0  0  0  0
   90.2825   48.1494  266.3000 N   0  0  0  0  0  0  0  0  0  0  0  0
   93.5910   51.1031  268.3371 C   0  0  0  0  0  0  0  0  0  0  0  0
   94.5701   51.9487  267.7934 C   0  0  0  0  0  0  0  0  0  0  0  0
   94.8764   53.1831  268.3626 C   0  0  0  0  0  0  0  0  0  0  0  0
   94.1738   53.5765  269.5033 C   0  0  0  0  0  0  0  0  0  0  0  0
   93.2106   52.6774  270.0808 C   0  0  0  0  0  0  0  0  0  0  0  0
   92.8955   51.4555  269.4914 C   0  0  0  0  0  0  0  0  0  0  0  0
   94.1940   54.7417  270.3236 C   0  0  0  0  0  0  0  0  0  0  0  0
   93.3211   54.5038  271.3418 C   0  0  0  0  0  0  0  0  0  0  0  0
   92.7601   53.2789  271.2412 N   0  0  0  0  0  0  0  0  0  0  0  0
   89.7058   47.3516  265.2944 C   0  0  0  0  0  0  0  0  0  0  0  0
   91.8506   52.7297  272.2448 C   0  0  0  0  0  0  0  0  0  0  0  0
   88.4003   46.8132  265.3997 C   0  0  0  0  0  0  0  0  0  0  0  0
   87.8903   46.1026  264.3004 C   0  0  0  0  0  0  0  0  0  0  0  0
   88.6717   45.9405  263.1626 C   0  0  0  0  0  0  0  0  0  0  0  0
   89.9225   46.4384  263.0456 N   0  0  0  0  0  0  0  0  0  0  0  0
   90.4118   47.1270  264.1049 C   0  0  0  0  0  0  0  0  0  0  0  0
   87.5461   46.9593  266.6443 C   0  0  0  0  0  0  0  0  0  0  0  0
   86.6807   45.9742  266.8909 N   0  0  0  0  0  0  0  0  0  0  0  0
   87.6482   47.9220  267.4000 O   0  0  0  0  0  0  0  0  0  0  0  0
   92.1950   46.4536  267.0034 H   0  0  0  0  0  0  0  0  0  0  0  0
   92.6094   47.1505  265.4004 H   0  0  0  0  0  0  0  0  0  0  0  0
   91.2177   50.2895  267.4495 H   0  0  0  0  0  0  0  0  0  0  0  0
   97.4784   48.1027  268.0217 H   0  0  0  0  0  0  0  0  0  0  0  0
   96.7903   45.9554  267.0814 H   0  0  0  0  0  0  0  0  0  0  0  0
   95.1018   51.6335  266.9078 H   0  0  0  0  0  0  0  0  0  0  0  0
   95.6368   53.8185  267.9330 H   0  0  0  0  0  0  0  0  0  0  0  0
   92.1417   50.8069  269.9127 H   0  0  0  0  0  0  0  0  0  0  0  0
   94.7829   55.6337  270.1690 H   0  0  0  0  0  0  0  0  0  0  0  0
   93.1042   55.2074  272.1319 H   0  0  0  0  0  0  0  0  0  0  0  0
   91.6974   53.4686  273.0451 H   0  0  0  0  0  0  0  0  0  0  0  0
   90.8848   52.4936  271.7742 H   0  0  0  0  0  0  0  0  0  0  0  0
   92.2848   51.8130  272.6705 H   0  0  0  0  0  0  0  0  0  0  0  0
   86.8954   45.6841  264.3393 H   0  0  0  0  0  0  0  0  0  0  0  0
   88.2588   45.3893  262.3307 H   0  0  0  0  0  0  0  0  0  0  0  0
   91.4112   47.5291  264.0275 H   0  0  0  0  0  0  0  0  0  0  0  0
   86.1628   46.1323  267.7316 H   0  0  0  0  0  0  0  0  0  0  0  0
   87.0312   47.8296  268.1164 H   0  0  0  0  0  0  0  0  0  0  0  0
  1  2  1  0  0  0  0
  1  6  1  0  0  0  0
  2  3  1  0  0  0  0
  2 11  2  0  0  0  0
  3  4  2  0  0  0  0
  4  5  1  0  0  0  0
  4 12  1  0  0  0  0
  5  6  2  0  0  0  0
  5  8  1  0  0  0  0
  6  7  1  0  0  0  0
  7 10  2  0  0  0  0
  8  9  2  0  0  0  0
  9 10  1  0  0  0  0
 11 21  1  0  0  0  0
 12 13  2  0  0  0  0
 12 17  1  0  0  0  0
 13 14  1  0  0  0  0
 14 15  2  0  0  0  0
 15 18  1  0  0  0  0
 15 16  1  0  0  0  0
 16 17  2  0  0  0  0
 16 20  1  0  0  0  0
 18 19  2  0  0  0  0
 19 20  1  0  0  0  0
 20 22  1  0  0  0  0
 21 27  2  0  0  0  0
 21 23  1  0  0  0  0
 23 24  2  0  0  0  0
 23 28  1  0  0  0  0
 24 25  1  0  0  0  0
 25 26  2  0  0  0  0
 26 27  1  0  0  0  0
 28 29  2  0  0  0  0
 28 30  1  0  0  0  0
  1 31  1  0  0  0  0
  1 32  1  0  0  0  0
  3 33  1  0  0  0  0
  9 34  1  0  0  0  0
 10 35  1  0  0  0  0
 13 36  1  0  0  0  0
 14 37  1  0  0  0  0
 17 38  1  0  0  0  0
 18 39  1  0  0  0  0
 19 40  1  0  0  0  0
 22 41  1  0  0  0  0
 22 42  1  0  0  0  0
 22 43  1  0  0  0  0
 24 44  1  0  0  0  0
 25 45  1  0  0  0  0
 27 46  1  0  0  0  0
 29 47  1  0  0  0  0
 30 48  1  0  0  0  0
M  END
> <ID>
34

> <IC50[uM]>
0.049

$$$$
34
  -OEChem-05192314323D
 Structure written by MMmdl.
 48 52  0     0  0  0  0  0  0999 V2000
   92.5675   47.3476  266.4818 C   0  0  0  0  0  0  0  0  0  0  0  0
   91.6195   48.3446  266.6702 C   0  0  0  0  0  0  0  0  0  0  0  0
   91.9774   49.5404  267.2822 C   0  0  0  0  0  0  0  0  0  0  0  0
   93.2882   49.8046  267.6879 C   0  0  0  0  0  0  0  0  0  0  0  0
   94.2739   48.7854  267.5113 C   0  0  0  0  0  0  0  0  0  0  0  0
   93.8948   47.5437  266.9102 C   0  0  0  0  0  0  0  0  0  0  0  0
   94.7936   46.5330  266.7587 N   0  0  0  0  0  0  0  0  0  0  0  0
   95.5623   48.9682  267.9318 N   0  0  0  0  0  0  0  0  0  0  0  0
   96.4466   47.9594  267.7367 C   0  0  0  0  0  0  0  0  0  0  0  0
   96.0613   46.7461  267.1800 C   0  0  0  0  0  0  0  0  0  0  0  0
   90.2825   48.1494  266.3000 N   0  0  0  0  0  0  0  0  0  0  0  0
   93.5910   51.1031  268.3371 C   0  0  0  0  0  0  0  0  0  0  0  0
   94.5701   51.9487  267.7934 C   0  0  0  0  0  0  0  0  0  0  0  0
   94.8764   53.1831  268.3626 C   0  0  0  0  0  0  0  0  0  0  0  0
   94.1738   53.5765  269.5033 C   0  0  0  0  0  0  0  0  0  0  0  0
   93.2106   52.6774  270.0808 C   0  0  0  0  0  0  0  0  0  0  0  0
   92.8955   51.4555  269.4914 C   0  0  0  0  0  0  0  0  0  0  0  0
   94.1940   54.7417  270.3236 C   0  0  0  0  0  0  0  0  0  0  0  0
   93.3211   54.5038  271.3418 C   0  0  0  0  0  0  0  0  0  0  0  0
   92.7601   53.2789  271.2412 N   0  0  0  0  0  0  0  0  0  0  0  0
   89.7058   47.3516  265.2944 C   0  0  0  0  0  0  0  0  0  0  0  0
   91.8506   52.7297  272.2448 C   0  0  0  0  0  0  0  0  0  0  0  0
   88.4003   46.8132  265.3997 C   0  0  0  0  0  0  0  0  0  0  0  0
   87.8903   46.1026  264.3004 C   0  0  0  0  0  0  0  0  0  0  0  0
   88.6717   45.9405  263.1626 C   0  0  0  0  0  0  0  0  0  0  0  0
   89.9225   46.4384  263.0456 N   0  0  0  0  0  0  0  0  0  0  0  0
   90.4118   47.1270  264.1049 C   0  0  0  0  0  0  0  0  0  0  0  0
   87.5461   46.9593  266.6443 C   0  0  0  0  0  0  0  0  0  0  0  0
   86.6807   45.9742  266.8909 N   0  0  0  0  0  0  0  0  0  0  0  0
   87.6482   47.9220  267.4000 O   0  0  0  0  0  0  0  0  0  0  0  0
   92.2864   46.4198  266.0058 H   0  0  0  0  0  0  0  0  0  0  0  0
   91.7073   50.3397  266.5764 H   0  0  0  0  0  0  0  0  0  0  0  0
   91.3540   49.6222  268.1848 H   0  0  0  0  0  0  0  0  0  0  0  0
   97.4784   48.1027  268.0217 H   0  0  0  0  0  0  0  0  0  0  0  0
   96.7903   45.9554  267.0814 H   0  0  0  0  0  0  0  0  0  0  0  0
   95.1018   51.6335  266.9078 H   0  0  0  0  0  0  0  0  0  0  0  0
   95.6368   53.8185  267.9330 H   0  0  0  0  0  0  0  0  0  0  0  0
   92.1417   50.8069  269.9127 H   0  0  0  0  0  0  0  0  0  0  0  0
   94.7829   55.6337  270.1690 H   0  0  0  0  0  0  0  0  0  0  0  0
   93.1042   55.2074  272.1319 H   0  0  0  0  0  0  0  0  0  0  0  0
   91.6974   53.4686  273.0451 H   0  0  0  0  0  0  0  0  0  0  0  0
   90.8848   52.4936  271.7742 H   0  0  0  0  0  0  0  0  0  0  0  0
   92.2848   51.8130  272.6705 H   0  0  0  0  0  0  0  0  0  0  0  0
   86.8954   45.6841  264.3393 H   0  0  0  0  0  0  0  0  0  0  0  0
   88.2588   45.3893  262.3307 H   0  0  0  0  0  0  0  0  0  0  0  0
   91.4112   47.5291  264.0275 H   0  0  0  0  0  0  0  0  0  0  0  0
   86.0996   46.0110  267.7039 H   0  0  0  0  0  0  0  0  0  0  0  0
   86.6132   45.1991  266.2627 H   0  0  0  0  0  0  0  0  0  0  0  0
  1  2  1  0  0  0  0
  1  6  2  0  0  0  0
  2  3  1  0  0  0  0
  2 11  2  0  0  0  0
  3  4  1  0  0  0  0
  4  5  2  0  0  0  0
  4 12  1  0  0  0  0
  5  6  1  0  0  0  0
  5  8  1  0  0  0  0
  6  7  1  0  0  0  0
  7 10  2  0  0  0  0
  8  9  2  0  0  0  0
  9 10  1  0  0  0  0
 11 21  1  0  0  0  0
 12 13  2  0  0  0  0
 12 17  1  0  0  0  0
 13 14  1  0  0  0  0
 14 15  2  0  0  0  0
 15 18  1  0  0  0  0
 15 16  1  0  0  0  0
 16 17  2  0  0  0  0
 16 20  1  0  0  0  0
 18 19  2  0  0  0  0
 19 20  1  0  0  0  0
 20 22  1  0  0  0  0
 21 27  2  0  0  0  0
 21 23  1  0  0  0  0
 23 24  2  0  0  0  0
 23 28  1  0  0  0  0
 24 25  1  0  0  0  0
 25 26  2  0  0  0  0
 26 27  1  0  0  0  0
 28 29  1  0  0  0  0
 28 30  2  0  0  0  0
  1 31  1  0  0  0  0
  3 32  1  0  0  0  0
  3 33  1  0  0  0  0
  9 34  1  0  0  0  0
 10 35  1  0  0  0  0
 13 36  1  0  0  0  0
 14 37  1  0  0  0  0
 17 38  1  0  0  0  0
 18 39  1  0  0  0  0
 19 40  1  0  0  0  0
 22 41  1  0  0  0  0
 22 42  1  0  0  0  0
 22 43  1  0  0  0  0
 24 44  1  0  0  0  0
 25 45  1  0  0  0  0
 27 46  1  0  0  0  0
 29 47  1  0  0  0  0
 29 48  1  0  0  0  0
M  END
> <ID>
34

> <IC50[uM]>
0.049

$$$$
34
  -OEChem-05192314323D
 Structure written by MMmdl.
 48 52  0     0  0  0  0  0  0999 V2000
   92.5675   47.3476  266.4818 C   0  0  0  0  0  0  0  0  0  0  0  0
   91.6195   48.3446  266.6702 C   0  0  0  0  0  0  0  0  0  0  0  0
   91.9774   49.5404  267.2822 C   0  0  0  0  0  0  0  0  0  0  0  0
   93.2882   49.8046  267.6879 C   0  0  0  0  0  0  0  0  0  0  0  0
   94.2739   48.7854  267.5113 C   0  0  0  0  0  0  0  0  0  0  0  0
   93.8948   47.5437  266.9102 C   0  0  0  0  0  0  0  0  0  0  0  0
   94.7936   46.5330  266.7587 N   0  0  0  0  0  0  0  0  0  0  0  0
   95.5623   48.9682  267.9318 N   0  0  0  0  0  0  0  0  0  0  0  0
   96.4466   47.9594  267.7367 C   0  0  0  0  0  0  0  0  0  0  0  0
   96.0613   46.7461  267.1800 C   0  0  0  0  0  0  0  0  0  0  0  0
   90.2825   48.1494  266.3000 N   0  0  0  0  0  0  0  0  0  0  0  0
   93.5910   51.1031  268.3371 C   0  0  0  0  0  0  0  0  0  0  0  0
   94.5701   51.9487  267.7934 C   0  0  0  0  0  0  0  0  0  0  0  0
   94.8764   53.1831  268.3626 C   0  0  0  0  0  0  0  0  0  0  0  0
   94.1738   53.5765  269.5033 C   0  0  0  0  0  0  0  0  0  0  0  0
   93.2106   52.6774  270.0808 C   0  0  0  0  0  0  0  0  0  0  0  0
   92.8955   51.4555  269.4914 C   0  0  0  0  0  0  0  0  0  0  0  0
   94.1940   54.7417  270.3236 C   0  0  0  0  0  0  0  0  0  0  0  0
   93.3211   54.5038  271.3418 C   0  0  0  0  0  0  0  0  0  0  0  0
   92.7601   53.2789  271.2412 N   0  0  0  0  0  0  0  0  0  0  0  0
   89.7058   47.3516  265.2944 C   0  0  0  0  0  0  0  0  0  0  0  0
   91.8506   52.7297  272.2448 C   0  0  0  0  0  0  0  0  0  0  0  0
   88.4003   46.8132  265.3997 C   0  0  0  0  0  0  0  0  0  0  0  0
   87.8903   46.1026  264.3004 C   0  0  0  0  0  0  0  0  0  0  0  0
   88.6717   45.9405  263.1626 C   0  0  0  0  0  0  0  0  0  0  0  0
   89.9225   46.4384  263.0456 N   0  0  0  0  0  0  0  0  0  0  0  0
   90.4118   47.1270  264.1049 C   0  0  0  0  0  0  0  0  0  0  0  0
   87.5461   46.9593  266.6443 C   0  0  0  0  0  0  0  0  0  0  0  0
   86.6807   45.9742  266.8909 N   0  0  0  0  0  0  0  0  0  0  0  0
   87.6482   47.9220  267.4000 O   0  0  0  0  0  0  0  0  0  0  0  0
   92.2864   46.4198  266.0058 H   0  0  0  0  0  0  0  0  0  0  0  0
   91.7073   50.3397  266.5764 H   0  0  0  0  0  0  0  0  0  0  0  0
   91.3540   49.6222  268.1848 H   0  0  0  0  0  0  0  0  0  0  0  0
   97.4784   48.1027  268.0217 H   0  0  0  0  0  0  0  0  0  0  0  0
   96.7903   45.9554  267.0814 H   0  0  0  0  0  0  0  0  0  0  0  0
   95.1018   51.6335  266.9078 H   0  0  0  0  0  0  0  0  0  0  0  0
   95.6368   53.8185  267.9330 H   0  0  0  0  0  0  0  0  0  0  0  0
   92.1417   50.8069  269.9127 H   0  0  0  0  0  0  0  0  0  0  0  0
   94.7829   55.6337  270.1690 H   0  0  0  0  0  0  0  0  0  0  0  0
   93.1042   55.2074  272.1319 H   0  0  0  0  0  0  0  0  0  0  0  0
   91.6974   53.4686  273.0451 H   0  0  0  0  0  0  0  0  0  0  0  0
   90.8848   52.4936  271.7742 H   0  0  0  0  0  0  0  0  0  0  0  0
   92.2848   51.8130  272.6705 H   0  0  0  0  0  0  0  0  0  0  0  0
   86.8954   45.6841  264.3393 H   0  0  0  0  0  0  0  0  0  0  0  0
   88.2588   45.3893  262.3307 H   0  0  0  0  0  0  0  0  0  0  0  0
   91.4112   47.5291  264.0275 H   0  0  0  0  0  0  0  0  0  0  0  0
   86.1628   46.1323  267.7316 H   0  0  0  0  0  0  0  0  0  0  0  0
   87.0312   47.8296  268.1164 H   0  0  0  0  0  0  0  0  0  0  0  0
  1  2  1  0  0  0  0
  1  6  2  0  0  0  0
  2  3  1  0  0  0  0
  2 11  2  0  0  0  0
  3  4  1  0  0  0  0
  4  5  2  0  0  0  0
  4 12  1  0  0  0  0
  5  6  1  0  0  0  0
  5  8  1  0  0  0  0
  6  7  1  0  0  0  0
  7 10  2  0  0  0  0
  8  9  2  0  0  0  0
  9 10  1  0  0  0  0
 11 21  1  0  0  0  0
 12 13  2  0  0  0  0
 12 17  1  0  0  0  0
 13 14  1  0  0  0  0
 14 15  2  0  0  0  0
 15 18  1  0  0  0  0
 15 16  1  0  0  0  0
 16 17  2  0  0  0  0
 16 20  1  0  0  0  0
 18 19  2  0  0  0  0
 19 20  1  0  0  0  0
 20 22  1  0  0  0  0
 21 27  2  0  0  0  0
 21 23  1  0  0  0  0
 23 24  2  0  0  0  0
 23 28  1  0  0  0  0
 24 25  1  0  0  0  0
 25 26  2  0  0  0  0
 26 27  1  0  0  0  0
 28 29  2  0  0  0  0
 28 30  1  0  0  0  0
  1 31  1  0  0  0  0
  3 32  1  0  0  0  0
  3 33  1  0  0  0  0
  9 34  1  0  0  0  0
 10 35  1  0  0  0  0
 13 36  1  0  0  0  0
 14 37  1  0  0  0  0
 17 38  1  0  0  0  0
 18 39  1  0  0  0  0
 19 40  1  0  0  0  0
 22 41  1  0  0  0  0
 22 42  1  0  0  0  0
 22 43  1  0  0  0  0
 24 44  1  0  0  0  0
 25 45  1  0  0  0  0
 27 46  1  0  0  0  0
 29 47  1  0  0  0  0
 30 48  1  0  0  0  0
M  END
> <ID>
34

> <IC50[uM]>
0.049

$$$$
34
  -OEChem-05192314323D
 Structure written by MMmdl.
 48 52  0     1  0  0  0  0  0999 V2000
   92.5675   47.3476  266.4818 C   0  0  0  0  0  0  0  0  0  0  0  0
   91.6195   48.3446  266.6702 C   0  0  0  0  0  0  0  0  0  0  0  0
   91.9774   49.5404  267.2822 C   0  0  0  0  0  0  0  0  0  0  0  0
   93.2882   49.8046  267.6879 C   0  0  0  0  0  0  0  0  0  0  0  0
   94.2739   48.7854  267.5113 C   0  0  0  0  0  0  0  0  0  0  0  0
   93.8948   47.5437  266.9102 C   0  0  0  0  0  0  0  0  0  0  0  0
   94.7936   46.5330  266.7587 N   0  0  0  0  0  0  0  0  0  0  0  0
   95.5623   48.9682  267.9318 N   0  0  0  0  0  0  0  0  0  0  0  0
   96.4466   47.9594  267.7367 C   0  0  0  0  0  0  0  0  0  0  0  0
   96.0613   46.7461  267.1800 C   0  0  0  0  0  0  0  0  0  0  0  0
   90.2825   48.1494  266.3000 N   0  0  0  0  0  0  0  0  0  0  0  0
   93.5910   51.1031  268.3371 C   0  0  0  0  0  0  0  0  0  0  0  0
   94.5701   51.9487  267.7934 C   0  0  0  0  0  0  0  0  0  0  0  0
   94.8764   53.1831  268.3626 C   0  0  0  0  0  0  0  0  0  0  0  0
   94.1738   53.5765  269.5033 C   0  0  0  0  0  0  0  0  0  0  0  0
   93.2106   52.6774  270.0808 C   0  0  0  0  0  0  0  0  0  0  0  0
   92.8955   51.4555  269.4914 C   0  0  0  0  0  0  0  0  0  0  0  0
   94.1940   54.7417  270.3236 C   0  0  0  0  0  0  0  0  0  0  0  0
   93.3211   54.5038  271.3418 C   0  0  0  0  0  0  0  0  0  0  0  0
   92.7601   53.2789  271.2412 N   0  0  0  0  0  0  0  0  0  0  0  0
   89.7058   47.3516  265.2944 C   0  0  0  0  0  0  0  0  0  0  0  0
   91.8506   52.7297  272.2448 C   0  0  0  0  0  0  0  0  0  0  0  0
   88.4003   46.8132  265.3997 C   0  0  3  0  0  0  0  0  0  0  0  0
   87.8903   46.1026  264.3004 C   0  0  0  0  0  0  0  0  0  0  0  0
   88.6717   45.9405  263.1626 C   0  0  0  0  0  0  0  0  0  0  0  0
   89.9225   46.4384  263.0456 N   0  0  0  0  0  0  0  0  0  0  0  0
   90.4118   47.1270  264.1049 C   0  0  0  0  0  0  0  0  0  0  0  0
   87.5461   46.9593  266.6443 C   0  0  0  0  0  0  0  0  0  0  0  0
   86.6807   45.9742  266.8909 N   0  0  0  0  0  0  0  0  0  0  0  0
   87.6482   47.9220  267.4000 O   0  0  0  0  0  0  0  0  0  0  0  0
   92.2864   46.4198  266.0058 H   0  0  0  0  0  0  0  0  0  0  0  0
   91.2177   50.2895  267.4495 H   0  0  0  0  0  0  0  0  0  0  0  0
   97.4784   48.1027  268.0217 H   0  0  0  0  0  0  0  0  0  0  0  0
   96.7903   45.9554  267.0814 H   0  0  0  0  0  0  0  0  0  0  0  0
   95.1018   51.6335  266.9078 H   0  0  0  0  0  0  0  0  0  0  0  0
   95.6368   53.8185  267.9330 H   0  0  0  0  0  0  0  0  0  0  0  0
   92.1417   50.8069  269.9127 H   0  0  0  0  0  0  0  0  0  0  0  0
   94.7829   55.6337  270.1690 H   0  0  0  0  0  0  0  0  0  0  0  0
   93.1042   55.2074  272.1319 H   0  0  0  0  0  0  0  0  0  0  0  0
   91.6974   53.4686  273.0451 H   0  0  0  0  0  0  0  0  0  0  0  0
   90.8848   52.4936  271.7742 H   0  0  0  0  0  0  0  0  0  0  0  0
   92.2848   51.8130  272.6705 H   0  0  0  0  0  0  0  0  0  0  0  0
   87.9791   47.7461  264.9969 H   0  0  0  0  0  0  0  0  0  0  0  0
   86.8954   45.6841  264.3393 H   0  0  0  0  0  0  0  0  0  0  0  0
   88.2588   45.3893  262.3307 H   0  0  0  0  0  0  0  0  0  0  0  0
   91.4112   47.5291  264.0275 H   0  0  0  0  0  0  0  0  0  0  0  0
   86.0996   46.0110  267.7039 H   0  0  0  0  0  0  0  0  0  0  0  0
   86.6132   45.1991  266.2627 H   0  0  0  0  0  0  0  0  0  0  0  0
  1  2  2  0  0  0  0
  1  6  1  0  0  0  0
  2  3  1  0  0  0  0
  2 11  1  0  0  0  0
  3  4  2  0  0  0  0
  4  5  1  0  0  0  0
  4 12  1  0  0  0  0
  5  6  2  0  0  0  0
  5  8  1  0  0  0  0
  6  7  1  0  0  0  0
  7 10  2  0  0  0  0
  8  9  2  0  0  0  0
  9 10  1  0  0  0  0
 11 21  2  3  0  0  0
 12 13  2  0  0  0  0
 12 17  1  0  0  0  0
 13 14  1  0  0  0  0
 14 15  2  0  0  0  0
 15 18  1  0  0  0  0
 15 16  1  0  0  0  0
 16 17  2  0  0  0  0
 16 20  1  0  0  0  0
 18 19  2  0  0  0  0
 19 20  1  0  0  0  0
 20 22  1  0  0  0  0
 21 27  1  0  0  0  0
 21 23  1  0  0  0  0
 23 24  1  0  0  0  0
 23 28  1  0  0  0  0
 24 25  2  0  0  0  0
 25 26  1  0  0  0  0
 26 27  2  0  0  0  0
 28 29  1  0  0  0  0
 28 30  2  0  0  0  0
  1 31  1  0  0  0  0
  3 32  1  0  0  0  0
  9 33  1  0  0  0  0
 10 34  1  0  0  0  0
 13 35  1  0  0  0  0
 14 36  1  0  0  0  0
 17 37  1  0  0  0  0
 18 38  1  0  0  0  0
 19 39  1  0  0  0  0
 22 40  1  0  0  0  0
 22 41  1  0  0  0  0
 22 42  1  0  0  0  0
 23 43  1  0  0  0  0
 24 44  1  0  0  0  0
 25 45  1  0  0  0  0
 27 46  1  0  0  0  0
 29 47  1  0  0  0  0
 29 48  1  0  0  0  0
M  END
> <ID>
34

> <IC50[uM]>
0.049

$$$$
34
  -OEChem-05192314323D
 Structure written by MMmdl.
 48 52  0     0  0  0  0  0  0999 V2000
   92.5675   47.3476  266.4818 C   0  0  0  0  0  0  0  0  0  0  0  0
   91.6195   48.3446  266.6702 C   0  0  0  0  0  0  0  0  0  0  0  0
   91.9774   49.5404  267.2822 C   0  0  0  0  0  0  0  0  0  0  0  0
   93.2882   49.8046  267.6879 C   0  0  0  0  0  0  0  0  0  0  0  0
   94.2739   48.7854  267.5113 C   0  0  0  0  0  0  0  0  0  0  0  0
   93.8948   47.5437  266.9102 C   0  0  0  0  0  0  0  0  0  0  0  0
   94.7936   46.5330  266.7587 N   0  0  0  0  0  0  0  0  0  0  0  0
   95.5623   48.9682  267.9318 N   0  0  0  0  0  0  0  0  0  0  0  0
   96.4466   47.9594  267.7367 C   0  0  0  0  0  0  0  0  0  0  0  0
   96.0613   46.7461  267.1800 C   0  0  0  0  0  0  0  0  0  0  0  0
   90.2825   48.1494  266.3000 N   0  0  0  0  0  0  0  0  0  0  0  0
   93.5910   51.1031  268.3371 C   0  0  0  0  0  0  0  0  0  0  0  0
   94.5701   51.9487  267.7934 C   0  0  0  0  0  0  0  0  0  0  0  0
   94.8764   53.1831  268.3626 C   0  0  0  0  0  0  0  0  0  0  0  0
   94.1738   53.5765  269.5033 C   0  0  0  0  0  0  0  0  0  0  0  0
   93.2106   52.6774  270.0808 C   0  0  0  0  0  0  0  0  0  0  0  0
   92.8955   51.4555  269.4914 C   0  0  0  0  0  0  0  0  0  0  0  0
   94.1940   54.7417  270.3236 C   0  0  0  0  0  0  0  0  0  0  0  0
   93.3211   54.5038  271.3418 C   0  0  0  0  0  0  0  0  0  0  0  0
   92.7601   53.2789  271.2412 N   0  0  0  0  0  0  0  0  0  0  0  0
   89.7058   47.3516  265.2944 C   0  0  0  0  0  0  0  0  0  0  0  0
   91.8506   52.7297  272.2448 C   0  0  0  0  0  0  0  0  0  0  0  0
   88.4003   46.8132  265.3997 C   0  0  0  0  0  0  0  0  0  0  0  0
   87.8903   46.1026  264.3004 C   0  0  0  0  0  0  0  0  0  0  0  0
   88.6717   45.9405  263.1626 C   0  0  0  0  0  0  0  0  0  0  0  0
   89.9225   46.4384  263.0456 N   0  0  0  0  0  0  0  0  0  0  0  0
   90.4118   47.1270  264.1049 C   0  0  0  0  0  0  0  0  0  0  0  0
   87.5461   46.9593  266.6443 C   0  0  0  0  0  0  0  0  0  0  0  0
   86.6807   45.9742  266.8909 N   0  0  0  0  0  0  0  0  0  0  0  0
   87.6482   47.9220  267.4000 O   0  0  0  0  0  0  0  0  0  0  0  0
   92.2864   46.4198  266.0058 H   0  0  0  0  0  0  0  0  0  0  0  0
   91.2177   50.2895  267.4495 H   0  0  0  0  0  0  0  0  0  0  0  0
   97.4784   48.1027  268.0217 H   0  0  0  0  0  0  0  0  0  0  0  0
   96.7903   45.9554  267.0814 H   0  0  0  0  0  0  0  0  0  0  0  0
   95.1018   51.6335  266.9078 H   0  0  0  0  0  0  0  0  0  0  0  0
   95.6368   53.8185  267.9330 H   0  0  0  0  0  0  0  0  0  0  0  0
   92.1417   50.8069  269.9127 H   0  0  0  0  0  0  0  0  0  0  0  0
   94.7829   55.6337  270.1690 H   0  0  0  0  0  0  0  0  0  0  0  0
   93.1042   55.2074  272.1319 H   0  0  0  0  0  0  0  0  0  0  0  0
   91.6974   53.4686  273.0451 H   0  0  0  0  0  0  0  0  0  0  0  0
   90.8848   52.4936  271.7742 H   0  0  0  0  0  0  0  0  0  0  0  0
   92.2848   51.8130  272.6705 H   0  0  0  0  0  0  0  0  0  0  0  0
   86.8954   45.6841  264.3393 H   0  0  0  0  0  0  0  0  0  0  0  0
   88.7637   44.8548  263.0118 H   0  0  0  0  0  0  0  0  0  0  0  0
   88.0941   46.3779  262.3350 H   0  0  0  0  0  0  0  0  0  0  0  0
   91.4112   47.5291  264.0275 H   0  0  0  0  0  0  0  0  0  0  0  0
   86.0996   46.0110  267.7039 H   0  0  0  0  0  0  0  0  0  0  0  0
   86.6132   45.1991  266.2627 H   0  0  0  0  0  0  0  0  0  0  0  0
  1  2  2  0  0  0  0
  1  6  1  0  0  0  0
  2  3  1  0  0  0  0
  2 11  1  0  0  0  0
  3  4  2  0  0  0  0
  4  5  1  0  0  0  0
  4 12  1  0  0  0  0
  5  6  2  0  0  0  0
  5  8  1  0  0  0  0
  6  7  1  0  0  0  0
  7 10  2  0  0  0  0
  8  9  2  0  0  0  0
  9 10  1  0  0  0  0
 11 21  2  3  0  0  0
 12 13  2  0  0  0  0
 12 17  1  0  0  0  0
 13 14  1  0  0  0  0
 14 15  2  0  0  0  0
 15 18  1  0  0  0  0
 15 16  1  0  0  0  0
 16 17  2  0  0  0  0
 16 20  1  0  0  0  0
 18 19  2  0  0  0  0
 19 20  1  0  0  0  0
 20 22  1  0  0  0  0
 21 27  1  0  0  0  0
 21 23  1  0  0  0  0
 23 24  2  0  0  0  0
 23 28  1  0  0  0  0
 24 25  1  0  0  0  0
 25 26  1  0  0  0  0
 26 27  2  0  0  0  0
 28 29  1  0  0  0  0
 28 30  2  0  0  0  0
  1 31  1  0  0  0  0
  3 32  1  0  0  0  0
  9 33  1  0  0  0  0
 10 34  1  0  0  0  0
 13 35  1  0  0  0  0
 14 36  1  0  0  0  0
 17 37  1  0  0  0  0
 18 38  1  0  0  0  0
 19 39  1  0  0  0  0
 22 40  1  0  0  0  0
 22 41  1  0  0  0  0
 22 42  1  0  0  0  0
 24 43  1  0  0  0  0
 25 44  1  0  0  0  0
 25 45  1  0  0  0  0
 27 46  1  0  0  0  0
 29 47  1  0  0  0  0
 29 48  1  0  0  0  0
M  END
> <ID>
34

> <IC50[uM]>
0.049

$$$$
34
  -OEChem-05192314323D
 Structure written by MMmdl.
 48 52  0     0  0  0  0  0  0999 V2000
   92.5675   47.3476  266.4818 C   0  0  0  0  0  0  0  0  0  0  0  0
   91.6195   48.3446  266.6702 C   0  0  0  0  0  0  0  0  0  0  0  0
   91.9774   49.5404  267.2822 C   0  0  0  0  0  0  0  0  0  0  0  0
   93.2882   49.8046  267.6879 C   0  0  0  0  0  0  0  0  0  0  0  0
   94.2739   48.7854  267.5113 C   0  0  0  0  0  0  0  0  0  0  0  0
   93.8948   47.5437  266.9102 C   0  0  0  0  0  0  0  0  0  0  0  0
   94.7936   46.5330  266.7587 N   0  0  0  0  0  0  0  0  0  0  0  0
   95.5623   48.9682  267.9318 N   0  0  0  0  0  0  0  0  0  0  0  0
   96.4466   47.9594  267.7367 C   0  0  0  0  0  0  0  0  0  0  0  0
   96.0613   46.7461  267.1800 C   0  0  0  0  0  0  0  0  0  0  0  0
   90.2825   48.1494  266.3000 N   0  0  0  0  0  0  0  0  0  0  0  0
   93.5910   51.1031  268.3371 C   0  0  0  0  0  0  0  0  0  0  0  0
   94.5701   51.9487  267.7934 C   0  0  0  0  0  0  0  0  0  0  0  0
   94.8764   53.1831  268.3626 C   0  0  0  0  0  0  0  0  0  0  0  0
   94.1738   53.5765  269.5033 C   0  0  0  0  0  0  0  0  0  0  0  0
   93.2106   52.6774  270.0808 C   0  0  0  0  0  0  0  0  0  0  0  0
   92.8955   51.4555  269.4914 C   0  0  0  0  0  0  0  0  0  0  0  0
   94.1940   54.7417  270.3236 C   0  0  0  0  0  0  0  0  0  0  0  0
   93.3211   54.5038  271.3418 C   0  0  0  0  0  0  0  0  0  0  0  0
   92.7601   53.2789  271.2412 N   0  0  0  0  0  0  0  0  0  0  0  0
   89.7058   47.3516  265.2944 C   0  0  0  0  0  0  0  0  0  0  0  0
   91.8506   52.7297  272.2448 C   0  0  0  0  0  0  0  0  0  0  0  0
   88.4003   46.8132  265.3997 C   0  0  0  0  0  0  0  0  0  0  0  0
   87.8903   46.1026  264.3004 C   0  0  0  0  0  0  0  0  0  0  0  0
   88.6717   45.9405  263.1626 C   0  0  0  0  0  0  0  0  0  0  0  0
   89.9225   46.4384  263.0456 N   0  0  0  0  0  0  0  0  0  0  0  0
   90.4118   47.1270  264.1049 C   0  0  0  0  0  0  0  0  0  0  0  0
   87.5461   46.9593  266.6443 C   0  0  0  0  0  0  0  0  0  0  0  0
   86.6807   45.9742  266.8909 N   0  0  0  0  0  0  0  0  0  0  0  0
   87.6482   47.9220  267.4000 O   0  0  0  0  0  0  0  0  0  0  0  0
   92.2864   46.4198  266.0058 H   0  0  0  0  0  0  0  0  0  0  0  0
   91.2177   50.2895  267.4495 H   0  0  0  0  0  0  0  0  0  0  0  0
   97.4784   48.1027  268.0217 H   0  0  0  0  0  0  0  0  0  0  0  0
   96.7903   45.9554  267.0814 H   0  0  0  0  0  0  0  0  0  0  0  0
   95.1018   51.6335  266.9078 H   0  0  0  0  0  0  0  0  0  0  0  0
   95.6368   53.8185  267.9330 H   0  0  0  0  0  0  0  0  0  0  0  0
   92.1417   50.8069  269.9127 H   0  0  0  0  0  0  0  0  0  0  0  0
   94.7829   55.6337  270.1690 H   0  0  0  0  0  0  0  0  0  0  0  0
   93.1042   55.2074  272.1319 H   0  0  0  0  0  0  0  0  0  0  0  0
   91.6974   53.4686  273.0451 H   0  0  0  0  0  0  0  0  0  0  0  0
   90.8848   52.4936  271.7742 H   0  0  0  0  0  0  0  0  0  0  0  0
   92.2848   51.8130  272.6705 H   0  0  0  0  0  0  0  0  0  0  0  0
   86.8954   45.6841  264.3393 H   0  0  0  0  0  0  0  0  0  0  0  0
   88.2588   45.3893  262.3307 H   0  0  0  0  0  0  0  0  0  0  0  0
   90.6668   48.1247  263.7182 H   0  0  0  0  0  0  0  0  0  0  0  0
   91.3322   46.6021  264.4006 H   0  0  0  0  0  0  0  0  0  0  0  0
   86.0996   46.0110  267.7039 H   0  0  0  0  0  0  0  0  0  0  0  0
   86.6132   45.1991  266.2627 H   0  0  0  0  0  0  0  0  0  0  0  0
  1  2  2  0  0  0  0
  1  6  1  0  0  0  0
  2  3  1  0  0  0  0
  2 11  1  0  0  0  0
  3  4  2  0  0  0  0
  4  5  1  0  0  0  0
  4 12  1  0  0  0  0
  5  6  2  0  0  0  0
  5  8  1  0  0  0  0
  6  7  1  0  0  0  0
  7 10  2  0  0  0  0
  8  9  2  0  0  0  0
  9 10  1  0  0  0  0
 11 21  2  3  0  0  0
 12 13  2  0  0  0  0
 12 17  1  0  0  0  0
 13 14  1  0  0  0  0
 14 15  2  0  0  0  0
 15 18  1  0  0  0  0
 15 16  1  0  0  0  0
 16 17  2  0  0  0  0
 16 20  1  0  0  0  0
 18 19  2  0  0  0  0
 19 20  1  0  0  0  0
 20 22  1  0  0  0  0
 21 27  1  0  0  0  0
 21 23  1  0  0  0  0
 23 24  2  0  0  0  0
 23 28  1  0  0  0  0
 24 25  1  0  0  0  0
 25 26  2  0  0  0  0
 26 27  1  0  0  0  0
 28 29  1  0  0  0  0
 28 30  2  0  0  0  0
  1 31  1  0  0  0  0
  3 32  1  0  0  0  0
  9 33  1  0  0  0  0
 10 34  1  0  0  0  0
 13 35  1  0  0  0  0
 14 36  1  0  0  0  0
 17 37  1  0  0  0  0
 18 38  1  0  0  0  0
 19 39  1  0  0  0  0
 22 40  1  0  0  0  0
 22 41  1  0  0  0  0
 22 42  1  0  0  0  0
 24 43  1  0  0  0  0
 25 44  1  0  0  0  0
 27 45  1  0  0  0  0
 27 46  1  0  0  0  0
 29 47  1  0  0  0  0
 29 48  1  0  0  0  0
M  END
> <ID>
34

> <IC50[uM]>
0.049

$$$$
34
  -OEChem-05192314323D
 Structure written by MMmdl.
 48 52  0     1  0  0  0  0  0999 V2000
   92.5675   47.3476  266.4818 C   0  0  0  0  0  0  0  0  0  0  0  0
   91.6195   48.3446  266.6702 C   0  0  0  0  0  0  0  0  0  0  0  0
   91.9774   49.5404  267.2822 C   0  0  0  0  0  0  0  0  0  0  0  0
   93.2882   49.8046  267.6879 C   0  0  0  0  0  0  0  0  0  0  0  0
   94.2739   48.7854  267.5113 C   0  0  0  0  0  0  0  0  0  0  0  0
   93.8948   47.5437  266.9102 C   0  0  0  0  0  0  0  0  0  0  0  0
   94.7936   46.5330  266.7587 N   0  0  0  0  0  0  0  0  0  0  0  0
   95.5623   48.9682  267.9318 N   0  0  0  0  0  0  0  0  0  0  0  0
   96.4466   47.9594  267.7367 C   0  0  0  0  0  0  0  0  0  0  0  0
   96.0613   46.7461  267.1800 C   0  0  0  0  0  0  0  0  0  0  0  0
   90.2825   48.1494  266.3000 N   0  0  0  0  0  0  0  0  0  0  0  0
   93.5910   51.1031  268.3371 C   0  0  0  0  0  0  0  0  0  0  0  0
   94.5701   51.9487  267.7934 C   0  0  0  0  0  0  0  0  0  0  0  0
   94.8764   53.1831  268.3626 C   0  0  0  0  0  0  0  0  0  0  0  0
   94.1738   53.5765  269.5033 C   0  0  0  0  0  0  0  0  0  0  0  0
   93.2106   52.6774  270.0808 C   0  0  0  0  0  0  0  0  0  0  0  0
   92.8955   51.4555  269.4914 C   0  0  0  0  0  0  0  0  0  0  0  0
   94.1940   54.7417  270.3236 C   0  0  0  0  0  0  0  0  0  0  0  0
   93.3211   54.5038  271.3418 C   0  0  0  0  0  0  0  0  0  0  0  0
   92.7601   53.2789  271.2412 N   0  0  0  0  0  0  0  0  0  0  0  0
   89.7058   47.3516  265.2944 C   0  0  0  0  0  0  0  0  0  0  0  0
   91.8506   52.7297  272.2448 C   0  0  0  0  0  0  0  0  0  0  0  0
   88.4003   46.8132  265.3997 C   0  0  3  0  0  0  0  0  0  0  0  0
   87.8903   46.1026  264.3004 C   0  0  0  0  0  0  0  0  0  0  0  0
   88.6717   45.9405  263.1626 C   0  0  0  0  0  0  0  0  0  0  0  0
   89.9225   46.4384  263.0456 N   0  0  0  0  0  0  0  0  0  0  0  0
   90.4118   47.1270  264.1049 C   0  0  0  0  0  0  0  0  0  0  0  0
   87.5461   46.9593  266.6443 C   0  0  0  0  0  0  0  0  0  0  0  0
   86.6807   45.9742  266.8909 N   0  0  0  0  0  0  0  0  0  0  0  0
   87.6482   47.9220  267.4000 O   0  0  0  0  0  0  0  0  0  0  0  0
   92.2864   46.4198  266.0058 H   0  0  0  0  0  0  0  0  0  0  0  0
   91.2177   50.2895  267.4495 H   0  0  0  0  0  0  0  0  0  0  0  0
   97.4784   48.1027  268.0217 H   0  0  0  0  0  0  0  0  0  0  0  0
   96.7903   45.9554  267.0814 H   0  0  0  0  0  0  0  0  0  0  0  0
   95.1018   51.6335  266.9078 H   0  0  0  0  0  0  0  0  0  0  0  0
   95.6368   53.8185  267.9330 H   0  0  0  0  0  0  0  0  0  0  0  0
   92.1417   50.8069  269.9127 H   0  0  0  0  0  0  0  0  0  0  0  0
   94.7829   55.6337  270.1690 H   0  0  0  0  0  0  0  0  0  0  0  0
   93.1042   55.2074  272.1319 H   0  0  0  0  0  0  0  0  0  0  0  0
   91.6974   53.4686  273.0451 H   0  0  0  0  0  0  0  0  0  0  0  0
   90.8848   52.4936  271.7742 H   0  0  0  0  0  0  0  0  0  0  0  0
   92.2848   51.8130  272.6705 H   0  0  0  0  0  0  0  0  0  0  0  0
   87.9791   47.7461  264.9969 H   0  0  0  0  0  0  0  0  0  0  0  0
   86.8954   45.6841  264.3393 H   0  0  0  0  0  0  0  0  0  0  0  0
   88.2588   45.3893  262.3307 H   0  0  0  0  0  0  0  0  0  0  0  0
   91.4112   47.5291  264.0275 H   0  0  0  0  0  0  0  0  0  0  0  0
   86.1628   46.1323  267.7316 H   0  0  0  0  0  0  0  0  0  0  0  0
   87.0312   47.8296  268.1164 H   0  0  0  0  0  0  0  0  0  0  0  0
  1  2  2  0  0  0  0
  1  6  1  0  0  0  0
  2  3  1  0  0  0  0
  2 11  1  0  0  0  0
  3  4  2  0  0  0  0
  4  5  1  0  0  0  0
  4 12  1  0  0  0  0
  5  6  2  0  0  0  0
  5  8  1  0  0  0  0
  6  7  1  0  0  0  0
  7 10  2  0  0  0  0
  8  9  2  0  0  0  0
  9 10  1  0  0  0  0
 11 21  2  3  0  0  0
 12 13  2  0  0  0  0
 12 17  1  0  0  0  0
 13 14  1  0  0  0  0
 14 15  2  0  0  0  0
 15 18  1  0  0  0  0
 15 16  1  0  0  0  0
 16 17  2  0  0  0  0
 16 20  1  0  0  0  0
 18 19  2  0  0  0  0
 19 20  1  0  0  0  0
 20 22  1  0  0  0  0
 21 27  1  0  0  0  0
 21 23  1  0  0  0  0
 23 24  1  0  0  0  0
 23 28  1  0  0  0  0
 24 25  2  0  0  0  0
 25 26  1  0  0  0  0
 26 27  2  0  0  0  0
 28 29  2  0  0  0  0
 28 30  1  0  0  0  0
  1 31  1  0  0  0  0
  3 32  1  0  0  0  0
  9 33  1  0  0  0  0
 10 34  1  0  0  0  0
 13 35  1  0  0  0  0
 14 36  1  0  0  0  0
 17 37  1  0  0  0  0
 18 38  1  0  0  0  0
 19 39  1  0  0  0  0
 22 40  1  0  0  0  0
 22 41  1  0  0  0  0
 22 42  1  0  0  0  0
 23 43  1  0  0  0  0
 24 44  1  0  0  0  0
 25 45  1  0  0  0  0
 27 46  1  0  0  0  0
 29 47  1  0  0  0  0
 30 48  1  0  0  0  0
M  END
> <ID>
34

> <IC50[uM]>
0.049

$$$$
34
  -OEChem-05192314323D
 Structure written by MMmdl.
 48 52  0     0  0  0  0  0  0999 V2000
   92.5675   47.3476  266.4818 C   0  0  0  0  0  0  0  0  0  0  0  0
   91.6195   48.3446  266.6702 C   0  0  0  0  0  0  0  0  0  0  0  0
   91.9774   49.5404  267.2822 C   0  0  0  0  0  0  0  0  0  0  0  0
   93.2882   49.8046  267.6879 C   0  0  0  0  0  0  0  0  0  0  0  0
   94.2739   48.7854  267.5113 C   0  0  0  0  0  0  0  0  0  0  0  0
   93.8948   47.5437  266.9102 C   0  0  0  0  0  0  0  0  0  0  0  0
   94.7936   46.5330  266.7587 N   0  0  0  0  0  0  0  0  0  0  0  0
   95.5623   48.9682  267.9318 N   0  0  0  0  0  0  0  0  0  0  0  0
   96.4466   47.9594  267.7367 C   0  0  0  0  0  0  0  0  0  0  0  0
   96.0613   46.7461  267.1800 C   0  0  0  0  0  0  0  0  0  0  0  0
   90.2825   48.1494  266.3000 N   0  0  0  0  0  0  0  0  0  0  0  0
   93.5910   51.1031  268.3371 C   0  0  0  0  0  0  0  0  0  0  0  0
   94.5701   51.9487  267.7934 C   0  0  0  0  0  0  0  0  0  0  0  0
   94.8764   53.1831  268.3626 C   0  0  0  0  0  0  0  0  0  0  0  0
   94.1738   53.5765  269.5033 C   0  0  0  0  0  0  0  0  0  0  0  0
   93.2106   52.6774  270.0808 C   0  0  0  0  0  0  0  0  0  0  0  0
   92.8955   51.4555  269.4914 C   0  0  0  0  0  0  0  0  0  0  0  0
   94.1940   54.7417  270.3236 C   0  0  0  0  0  0  0  0  0  0  0  0
   93.3211   54.5038  271.3418 C   0  0  0  0  0  0  0  0  0  0  0  0
   92.7601   53.2789  271.2412 N   0  0  0  0  0  0  0  0  0  0  0  0
   89.7058   47.3516  265.2944 C   0  0  0  0  0  0  0  0  0  0  0  0
   91.8506   52.7297  272.2448 C   0  0  0  0  0  0  0  0  0  0  0  0
   88.4003   46.8132  265.3997 C   0  0  0  0  0  0  0  0  0  0  0  0
   87.8903   46.1026  264.3004 C   0  0  0  0  0  0  0  0  0  0  0  0
   88.6717   45.9405  263.1626 C   0  0  0  0  0  0  0  0  0  0  0  0
   89.9225   46.4384  263.0456 N   0  0  0  0  0  0  0  0  0  0  0  0
   90.4118   47.1270  264.1049 C   0  0  0  0  0  0  0  0  0  0  0  0
   87.5461   46.9593  266.6443 C   0  0  0  0  0  0  0  0  0  0  0  0
   86.6807   45.9742  266.8909 N   0  0  0  0  0  0  0  0  0  0  0  0
   87.6482   47.9220  267.4000 O   0  0  0  0  0  0  0  0  0  0  0  0
   92.2864   46.4198  266.0058 H   0  0  0  0  0  0  0  0  0  0  0  0
   91.2177   50.2895  267.4495 H   0  0  0  0  0  0  0  0  0  0  0  0
   97.4784   48.1027  268.0217 H   0  0  0  0  0  0  0  0  0  0  0  0
   96.7903   45.9554  267.0814 H   0  0  0  0  0  0  0  0  0  0  0  0
   95.1018   51.6335  266.9078 H   0  0  0  0  0  0  0  0  0  0  0  0
   95.6368   53.8185  267.9330 H   0  0  0  0  0  0  0  0  0  0  0  0
   92.1417   50.8069  269.9127 H   0  0  0  0  0  0  0  0  0  0  0  0
   94.7829   55.6337  270.1690 H   0  0  0  0  0  0  0  0  0  0  0  0
   93.1042   55.2074  272.1319 H   0  0  0  0  0  0  0  0  0  0  0  0
   91.6974   53.4686  273.0451 H   0  0  0  0  0  0  0  0  0  0  0  0
   90.8848   52.4936  271.7742 H   0  0  0  0  0  0  0  0  0  0  0  0
   92.2848   51.8130  272.6705 H   0  0  0  0  0  0  0  0  0  0  0  0
   86.8954   45.6841  264.3393 H   0  0  0  0  0  0  0  0  0  0  0  0
   88.7637   44.8548  263.0118 H   0  0  0  0  0  0  0  0  0  0  0  0
   88.0941   46.3779  262.3350 H   0  0  0  0  0  0  0  0  0  0  0  0
   91.4112   47.5291  264.0275 H   0  0  0  0  0  0  0  0  0  0  0  0
   86.1628   46.1323  267.7316 H   0  0  0  0  0  0  0  0  0  0  0  0
   87.0312   47.8296  268.1164 H   0  0  0  0  0  0  0  0  0  0  0  0
  1  2  2  0  0  0  0
  1  6  1  0  0  0  0
  2  3  1  0  0  0  0
  2 11  1  0  0  0  0
  3  4  2  0  0  0  0
  4  5  1  0  0  0  0
  4 12  1  0  0  0  0
  5  6  2  0  0  0  0
  5  8  1  0  0  0  0
  6  7  1  0  0  0  0
  7 10  2  0  0  0  0
  8  9  2  0  0  0  0
  9 10  1  0  0  0  0
 11 21  2  3  0  0  0
 12 13  2  0  0  0  0
 12 17  1  0  0  0  0
 13 14  1  0  0  0  0
 14 15  2  0  0  0  0
 15 18  1  0  0  0  0
 15 16  1  0  0  0  0
 16 17  2  0  0  0  0
 16 20  1  0  0  0  0
 18 19  2  0  0  0  0
 19 20  1  0  0  0  0
 20 22  1  0  0  0  0
 21 27  1  0  0  0  0
 21 23  1  0  0  0  0
 23 24  2  0  0  0  0
 23 28  1  0  0  0  0
 24 25  1  0  0  0  0
 25 26  1  0  0  0  0
 26 27  2  0  0  0  0
 28 29  2  0  0  0  0
 28 30  1  0  0  0  0
  1 31  1  0  0  0  0
  3 32  1  0  0  0  0
  9 33  1  0  0  0  0
 10 34  1  0  0  0  0
 13 35  1  0  0  0  0
 14 36  1  0  0  0  0
 17 37  1  0  0  0  0
 18 38  1  0  0  0  0
 19 39  1  0  0  0  0
 22 40  1  0  0  0  0
 22 41  1  0  0  0  0
 22 42  1  0  0  0  0
 24 43  1  0  0  0  0
 25 44  1  0  0  0  0
 25 45  1  0  0  0  0
 27 46  1  0  0  0  0
 29 47  1  0  0  0  0
 30 48  1  0  0  0  0
M  END
> <ID>
34

> <IC50[uM]>
0.049

$$$$
34
  -OEChem-05192314323D
 Structure written by MMmdl.
 48 52  0     0  0  0  0  0  0999 V2000
   92.5675   47.3476  266.4818 C   0  0  0  0  0  0  0  0  0  0  0  0
   91.6195   48.3446  266.6702 C   0  0  0  0  0  0  0  0  0  0  0  0
   91.9774   49.5404  267.2822 C   0  0  0  0  0  0  0  0  0  0  0  0
   93.2882   49.8046  267.6879 C   0  0  0  0  0  0  0  0  0  0  0  0
   94.2739   48.7854  267.5113 C   0  0  0  0  0  0  0  0  0  0  0  0
   93.8948   47.5437  266.9102 C   0  0  0  0  0  0  0  0  0  0  0  0
   94.7936   46.5330  266.7587 N   0  0  0  0  0  0  0  0  0  0  0  0
   95.5623   48.9682  267.9318 N   0  0  0  0  0  0  0  0  0  0  0  0
   96.4466   47.9594  267.7367 C   0  0  0  0  0  0  0  0  0  0  0  0
   96.0613   46.7461  267.1800 C   0  0  0  0  0  0  0  0  0  0  0  0
   90.2825   48.1494  266.3000 N   0  0  0  0  0  0  0  0  0  0  0  0
   93.5910   51.1031  268.3371 C   0  0  0  0  0  0  0  0  0  0  0  0
   94.5701   51.9487  267.7934 C   0  0  0  0  0  0  0  0  0  0  0  0
   94.8764   53.1831  268.3626 C   0  0  0  0  0  0  0  0  0  0  0  0
   94.1738   53.5765  269.5033 C   0  0  0  0  0  0  0  0  0  0  0  0
   93.2106   52.6774  270.0808 C   0  0  0  0  0  0  0  0  0  0  0  0
   92.8955   51.4555  269.4914 C   0  0  0  0  0  0  0  0  0  0  0  0
   94.1940   54.7417  270.3236 C   0  0  0  0  0  0  0  0  0  0  0  0
   93.3211   54.5038  271.3418 C   0  0  0  0  0  0  0  0  0  0  0  0
   92.7601   53.2789  271.2412 N   0  0  0  0  0  0  0  0  0  0  0  0
   89.7058   47.3516  265.2944 C   0  0  0  0  0  0  0  0  0  0  0  0
   91.8506   52.7297  272.2448 C   0  0  0  0  0  0  0  0  0  0  0  0
   88.4003   46.8132  265.3997 C   0  0  0  0  0  0  0  0  0  0  0  0
   87.8903   46.1026  264.3004 C   0  0  0  0  0  0  0  0  0  0  0  0
   88.6717   45.9405  263.1626 C   0  0  0  0  0  0  0  0  0  0  0  0
   89.9225   46.4384  263.0456 N   0  0  0  0  0  0  0  0  0  0  0  0
   90.4118   47.1270  264.1049 C   0  0  0  0  0  0  0  0  0  0  0  0
   87.5461   46.9593  266.6443 C   0  0  0  0  0  0  0  0  0  0  0  0
   86.6807   45.9742  266.8909 N   0  0  0  0  0  0  0  0  0  0  0  0
   87.6482   47.9220  267.4000 O   0  0  0  0  0  0  0  0  0  0  0  0
   92.2864   46.4198  266.0058 H   0  0  0  0  0  0  0  0  0  0  0  0
   91.2177   50.2895  267.4495 H   0  0  0  0  0  0  0  0  0  0  0  0
   97.4784   48.1027  268.0217 H   0  0  0  0  0  0  0  0  0  0  0  0
   96.7903   45.9554  267.0814 H   0  0  0  0  0  0  0  0  0  0  0  0
   95.1018   51.6335  266.9078 H   0  0  0  0  0  0  0  0  0  0  0  0
   95.6368   53.8185  267.9330 H   0  0  0  0  0  0  0  0  0  0  0  0
   92.1417   50.8069  269.9127 H   0  0  0  0  0  0  0  0  0  0  0  0
   94.7829   55.6337  270.1690 H   0  0  0  0  0  0  0  0  0  0  0  0
   93.1042   55.2074  272.1319 H   0  0  0  0  0  0  0  0  0  0  0  0
   91.6974   53.4686  273.0451 H   0  0  0  0  0  0  0  0  0  0  0  0
   90.8848   52.4936  271.7742 H   0  0  0  0  0  0  0  0  0  0  0  0
   92.2848   51.8130  272.6705 H   0  0  0  0  0  0  0  0  0  0  0  0
   86.8954   45.6841  264.3393 H   0  0  0  0  0  0  0  0  0  0  0  0
   88.2588   45.3893  262.3307 H   0  0  0  0  0  0  0  0  0  0  0  0
   90.6668   48.1247  263.7182 H   0  0  0  0  0  0  0  0  0  0  0  0
   91.3322   46.6021  264.4006 H   0  0  0  0  0  0  0  0  0  0  0  0
   86.1628   46.1323  267.7316 H   0  0  0  0  0  0  0  0  0  0  0  0
   87.0312   47.8296  268.1164 H   0  0  0  0  0  0  0  0  0  0  0  0
  1  2  2  0  0  0  0
  1  6  1  0  0  0  0
  2  3  1  0  0  0  0
  2 11  1  0  0  0  0
  3  4  2  0  0  0  0
  4  5  1  0  0  0  0
  4 12  1  0  0  0  0
  5  6  2  0  0  0  0
  5  8  1  0  0  0  0
  6  7  1  0  0  0  0
  7 10  2  0  0  0  0
  8  9  2  0  0  0  0
  9 10  1  0  0  0  0
 11 21  2  3  0  0  0
 12 13  2  0  0  0  0
 12 17  1  0  0  0  0
 13 14  1  0  0  0  0
 14 15  2  0  0  0  0
 15 18  1  0  0  0  0
 15 16  1  0  0  0  0
 16 17  2  0  0  0  0
 16 20  1  0  0  0  0
 18 19  2  0  0  0  0
 19 20  1  0  0  0  0
 20 22  1  0  0  0  0
 21 27  1  0  0  0  0
 21 23  1  0  0  0  0
 23 24  2  0  0  0  0
 23 28  1  0  0  0  0
 24 25  1  0  0  0  0
 25 26  2  0  0  0  0
 26 27  1  0  0  0  0
 28 29  2  0  0  0  0
 28 30  1  0  0  0  0
  1 31  1  0  0  0  0
  3 32  1  0  0  0  0
  9 33  1  0  0  0  0
 10 34  1  0  0  0  0
 13 35  1  0  0  0  0
 14 36  1  0  0  0  0
 17 37  1  0  0  0  0
 18 38  1  0  0  0  0
 19 39  1  0  0  0  0
 22 40  1  0  0  0  0
 22 41  1  0  0  0  0
 22 42  1  0  0  0  0
 24 43  1  0  0  0  0
 25 44  1  0  0  0  0
 27 45  1  0  0  0  0
 27 46  1  0  0  0  0
 29 47  1  0  0  0  0
 30 48  1  0  0  0  0
M  END
> <ID>
34

> <IC50[uM]>
0.049

$$$$
34
  -OEChem-05192314323D
 Structure written by MMmdl.
 48 52  0     1  0  0  0  0  0999 V2000
   92.5675   47.3476  266.4818 C   0  0  0  0  0  0  0  0  0  0  0  0
   91.6195   48.3446  266.6702 C   0  0  0  0  0  0  0  0  0  0  0  0
   91.9774   49.5404  267.2822 C   0  0  0  0  0  0  0  0  0  0  0  0
   93.2882   49.8046  267.6879 C   0  0  0  0  0  0  0  0  0  0  0  0
   94.2739   48.7854  267.5113 C   0  0  3  0  0  0  0  0  0  0  0  0
   93.8948   47.5437  266.9102 C   0  0  0  0  0  0  0  0  0  0  0  0
   94.7936   46.5330  266.7587 N   0  0  0  0  0  0  0  0  0  0  0  0
   95.5623   48.9682  267.9318 N   0  0  0  0  0  0  0  0  0  0  0  0
   96.4466   47.9594  267.7367 C   0  0  0  0  0  0  0  0  0  0  0  0
   96.0613   46.7461  267.1800 C   0  0  0  0  0  0  0  0  0  0  0  0
   90.2825   48.1494  266.3000 N   0  0  0  0  0  0  0  0  0  0  0  0
   93.5910   51.1031  268.3371 C   0  0  0  0  0  0  0  0  0  0  0  0
   94.5701   51.9487  267.7934 C   0  0  0  0  0  0  0  0  0  0  0  0
   94.8764   53.1831  268.3626 C   0  0  0  0  0  0  0  0  0  0  0  0
   94.1738   53.5765  269.5033 C   0  0  0  0  0  0  0  0  0  0  0  0
   93.2106   52.6774  270.0808 C   0  0  0  0  0  0  0  0  0  0  0  0
   92.8955   51.4555  269.4914 C   0  0  0  0  0  0  0  0  0  0  0  0
   94.1940   54.7417  270.3236 C   0  0  0  0  0  0  0  0  0  0  0  0
   93.3211   54.5038  271.3418 C   0  0  0  0  0  0  0  0  0  0  0  0
   92.7601   53.2789  271.2412 N   0  0  0  0  0  0  0  0  0  0  0  0
   89.7058   47.3516  265.2944 C   0  0  0  0  0  0  0  0  0  0  0  0
   91.8506   52.7297  272.2448 C   0  0  0  0  0  0  0  0  0  0  0  0
   88.4003   46.8132  265.3997 C   0  0  0  0  0  0  0  0  0  0  0  0
   87.8903   46.1026  264.3004 C   0  0  0  0  0  0  0  0  0  0  0  0
   88.6717   45.9405  263.1626 C   0  0  0  0  0  0  0  0  0  0  0  0
   89.9225   46.4384  263.0456 N   0  0  0  0  0  0  0  0  0  0  0  0
   90.4118   47.1270  264.1049 C   0  0  0  0  0  0  0  0  0  0  0  0
   87.5461   46.9593  266.6443 C   0  0  0  0  0  0  0  0  0  0  0  0
   86.6807   45.9742  266.8909 N   0  0  0  0  0  0  0  0  0  0  0  0
   87.6482   47.9220  267.4000 O   0  0  0  0  0  0  0  0  0  0  0  0
   92.2864   46.4198  266.0058 H   0  0  0  0  0  0  0  0  0  0  0  0
   91.2177   50.2895  267.4495 H   0  0  0  0  0  0  0  0  0  0  0  0
   94.5303   49.1942  266.5228 H   0  0  0  0  0  0  0  0  0  0  0  0
   97.4784   48.1027  268.0217 H   0  0  0  0  0  0  0  0  0  0  0  0
   96.7903   45.9554  267.0814 H   0  0  0  0  0  0  0  0  0  0  0  0
   95.1018   51.6335  266.9078 H   0  0  0  0  0  0  0  0  0  0  0  0
   95.6368   53.8185  267.9330 H   0  0  0  0  0  0  0  0  0  0  0  0
   92.1417   50.8069  269.9127 H   0  0  0  0  0  0  0  0  0  0  0  0
   94.7829   55.6337  270.1690 H   0  0  0  0  0  0  0  0  0  0  0  0
   93.1042   55.2074  272.1319 H   0  0  0  0  0  0  0  0  0  0  0  0
   91.6974   53.4686  273.0451 H   0  0  0  0  0  0  0  0  0  0  0  0
   90.8848   52.4936  271.7742 H   0  0  0  0  0  0  0  0  0  0  0  0
   92.2848   51.8130  272.6705 H   0  0  0  0  0  0  0  0  0  0  0  0
   86.8954   45.6841  264.3393 H   0  0  0  0  0  0  0  0  0  0  0  0
   88.2588   45.3893  262.3307 H   0  0  0  0  0  0  0  0  0  0  0  0
   91.4112   47.5291  264.0275 H   0  0  0  0  0  0  0  0  0  0  0  0
   86.0996   46.0110  267.7039 H   0  0  0  0  0  0  0  0  0  0  0  0
   86.6132   45.1991  266.2627 H   0  0  0  0  0  0  0  0  0  0  0  0
  1  2  1  0  0  0  0
  1  6  2  0  0  0  0
  2  3  1  0  0  0  0
  2 11  2  0  0  0  0
  3  4  2  0  0  0  0
  4  5  1  0  0  0  0
  4 12  1  0  0  0  0
  5  6  1  0  0  0  0
  5  8  1  0  0  0  0
  6  7  1  0  0  0  0
  7 10  2  0  0  0  0
  8  9  2  0  0  0  0
  9 10  1  0  0  0  0
 11 21  1  0  0  0  0
 12 13  2  0  0  0  0
 12 17  1  0  0  0  0
 13 14  1  0  0  0  0
 14 15  2  0  0  0  0
 15 18  1  0  0  0  0
 15 16  1  0  0  0  0
 16 17  2  0  0  0  0
 16 20  1  0  0  0  0
 18 19  2  0  0  0  0
 19 20  1  0  0  0  0
 20 22  1  0  0  0  0
 21 27  2  0  0  0  0
 21 23  1  0  0  0  0
 23 24  2  0  0  0  0
 23 28  1  0  0  0  0
 24 25  1  0  0  0  0
 25 26  2  0  0  0  0
 26 27  1  0  0  0  0
 28 29  1  0  0  0  0
 28 30  2  0  0  0  0
  1 31  1  0  0  0  0
  3 32  1  0  0  0  0
  5 33  1  0  0  0  0
  9 34  1  0  0  0  0
 10 35  1  0  0  0  0
 13 36  1  0  0  0  0
 14 37  1  0  0  0  0
 17 38  1  0  0  0  0
 18 39  1  0  0  0  0
 19 40  1  0  0  0  0
 22 41  1  0  0  0  0
 22 42  1  0  0  0  0
 22 43  1  0  0  0  0
 24 44  1  0  0  0  0
 25 45  1  0  0  0  0
 27 46  1  0  0  0  0
 29 47  1  0  0  0  0
 29 48  1  0  0  0  0
M  END
> <ID>
34

> <IC50[uM]>
0.049

$$$$
34
  -OEChem-05192314323D
 Structure written by MMmdl.
 48 52  0     0  0  0  0  0  0999 V2000
   92.5675   47.3476  266.4818 C   0  0  0  0  0  0  0  0  0  0  0  0
   91.6195   48.3446  266.6702 C   0  0  0  0  0  0  0  0  0  0  0  0
   91.9774   49.5404  267.2822 C   0  0  0  0  0  0  0  0  0  0  0  0
   93.2882   49.8046  267.6879 C   0  0  0  0  0  0  0  0  0  0  0  0
   94.2739   48.7854  267.5113 C   0  0  0  0  0  0  0  0  0  0  0  0
   93.8948   47.5437  266.9102 C   0  0  0  0  0  0  0  0  0  0  0  0
   94.7936   46.5330  266.7587 N   0  0  0  0  0  0  0  0  0  0  0  0
   95.5623   48.9682  267.9318 N   0  0  0  0  0  0  0  0  0  0  0  0
   96.4466   47.9594  267.7367 C   0  0  0  0  0  0  0  0  0  0  0  0
   96.0613   46.7461  267.1800 C   0  0  0  0  0  0  0  0  0  0  0  0
   90.2825   48.1494  266.3000 N   0  0  0  0  0  0  0  0  0  0  0  0
   93.5910   51.1031  268.3371 C   0  0  0  0  0  0  0  0  0  0  0  0
   94.5701   51.9487  267.7934 C   0  0  0  0  0  0  0  0  0  0  0  0
   94.8764   53.1831  268.3626 C   0  0  0  0  0  0  0  0  0  0  0  0
   94.1738   53.5765  269.5033 C   0  0  0  0  0  0  0  0  0  0  0  0
   93.2106   52.6774  270.0808 C   0  0  0  0  0  0  0  0  0  0  0  0
   92.8955   51.4555  269.4914 C   0  0  0  0  0  0  0  0  0  0  0  0
   94.1940   54.7417  270.3236 C   0  0  0  0  0  0  0  0  0  0  0  0
   93.3211   54.5038  271.3418 C   0  0  0  0  0  0  0  0  0  0  0  0
   92.7601   53.2789  271.2412 N   0  0  0  0  0  0  0  0  0  0  0  0
   89.7058   47.3516  265.2944 C   0  0  0  0  0  0  0  0  0  0  0  0
   91.8506   52.7297  272.2448 C   0  0  0  0  0  0  0  0  0  0  0  0
   88.4003   46.8132  265.3997 C   0  0  0  0  0  0  0  0  0  0  0  0
   87.8903   46.1026  264.3004 C   0  0  0  0  0  0  0  0  0  0  0  0
   88.6717   45.9405  263.1626 C   0  0  0  0  0  0  0  0  0  0  0  0
   89.9225   46.4384  263.0456 N   0  0  0  0  0  0  0  0  0  0  0  0
   90.4118   47.1270  264.1049 C   0  0  0  0  0  0  0  0  0  0  0  0
   87.5461   46.9593  266.6443 C   0  0  0  0  0  0  0  0  0  0  0  0
   86.6807   45.9742  266.8909 N   0  0  0  0  0  0  0  0  0  0  0  0
   87.6482   47.9220  267.4000 O   0  0  0  0  0  0  0  0  0  0  0  0
   92.2864   46.4198  266.0058 H   0  0  0  0  0  0  0  0  0  0  0  0
   91.2177   50.2895  267.4495 H   0  0  0  0  0  0  0  0  0  0  0  0
   97.2356   48.3620  267.0844 H   0  0  0  0  0  0  0  0  0  0  0  0
   96.8711   47.7254  268.7241 H   0  0  0  0  0  0  0  0  0  0  0  0
   96.7903   45.9554  267.0814 H   0  0  0  0  0  0  0  0  0  0  0  0
   95.1018   51.6335  266.9078 H   0  0  0  0  0  0  0  0  0  0  0  0
   95.6368   53.8185  267.9330 H   0  0  0  0  0  0  0  0  0  0  0  0
   92.1417   50.8069  269.9127 H   0  0  0  0  0  0  0  0  0  0  0  0
   94.7829   55.6337  270.1690 H   0  0  0  0  0  0  0  0  0  0  0  0
   93.1042   55.2074  272.1319 H   0  0  0  0  0  0  0  0  0  0  0  0
   91.6974   53.4686  273.0451 H   0  0  0  0  0  0  0  0  0  0  0  0
   90.8848   52.4936  271.7742 H   0  0  0  0  0  0  0  0  0  0  0  0
   92.2848   51.8130  272.6705 H   0  0  0  0  0  0  0  0  0  0  0  0
   86.8954   45.6841  264.3393 H   0  0  0  0  0  0  0  0  0  0  0  0
   88.2588   45.3893  262.3307 H   0  0  0  0  0  0  0  0  0  0  0  0
   91.4112   47.5291  264.0275 H   0  0  0  0  0  0  0  0  0  0  0  0
   86.0996   46.0110  267.7039 H   0  0  0  0  0  0  0  0  0  0  0  0
   86.6132   45.1991  266.2627 H   0  0  0  0  0  0  0  0  0  0  0  0
  1  2  1  0  0  0  0
  1  6  2  0  0  0  0
  2  3  1  0  0  0  0
  2 11  2  0  0  0  0
  3  4  2  0  0  0  0
  4  5  1  0  0  0  0
  4 12  1  0  0  0  0
  5  6  1  0  0  0  0
  5  8  2  0  0  0  0
  6  7  1  0  0  0  0
  7 10  2  0  0  0  0
  8  9  1  0  0  0  0
  9 10  1  0  0  0  0
 11 21  1  0  0  0  0
 12 13  2  0  0  0  0
 12 17  1  0  0  0  0
 13 14  1  0  0  0  0
 14 15  2  0  0  0  0
 15 18  1  0  0  0  0
 15 16  1  0  0  0  0
 16 17  2  0  0  0  0
 16 20  1  0  0  0  0
 18 19  2  0  0  0  0
 19 20  1  0  0  0  0
 20 22  1  0  0  0  0
 21 27  2  0  0  0  0
 21 23  1  0  0  0  0
 23 24  2  0  0  0  0
 23 28  1  0  0  0  0
 24 25  1  0  0  0  0
 25 26  2  0  0  0  0
 26 27  1  0  0  0  0
 28 29  1  0  0  0  0
 28 30  2  0  0  0  0
  1 31  1  0  0  0  0
  3 32  1  0  0  0  0
  9 33  1  0  0  0  0
  9 34  1  0  0  0  0
 10 35  1  0  0  0  0
 13 36  1  0  0  0  0
 14 37  1  0  0  0  0
 17 38  1  0  0  0  0
 18 39  1  0  0  0  0
 19 40  1  0  0  0  0
 22 41  1  0  0  0  0
 22 42  1  0  0  0  0
 22 43  1  0  0  0  0
 24 44  1  0  0  0  0
 25 45  1  0  0  0  0
 27 46  1  0  0  0  0
 29 47  1  0  0  0  0
 29 48  1  0  0  0  0
M  END
> <ID>
34

> <IC50[uM]>
0.049

$$$$
34
  -OEChem-05192314323D
 Structure written by MMmdl.
 48 52  0     1  0  0  0  0  0999 V2000
   92.5675   47.3476  266.4818 C   0  0  0  0  0  0  0  0  0  0  0  0
   91.6195   48.3446  266.6702 C   0  0  0  0  0  0  0  0  0  0  0  0
   91.9774   49.5404  267.2822 C   0  0  0  0  0  0  0  0  0  0  0  0
   93.2882   49.8046  267.6879 C   0  0  0  0  0  0  0  0  0  0  0  0
   94.2739   48.7854  267.5113 C   0  0  3  0  0  0  0  0  0  0  0  0
   93.8948   47.5437  266.9102 C   0  0  0  0  0  0  0  0  0  0  0  0
   94.7936   46.5330  266.7587 N   0  0  0  0  0  0  0  0  0  0  0  0
   95.5623   48.9682  267.9318 N   0  0  0  0  0  0  0  0  0  0  0  0
   96.4466   47.9594  267.7367 C   0  0  0  0  0  0  0  0  0  0  0  0
   96.0613   46.7461  267.1800 C   0  0  0  0  0  0  0  0  0  0  0  0
   90.2825   48.1494  266.3000 N   0  0  0  0  0  0  0  0  0  0  0  0
   93.5910   51.1031  268.3371 C   0  0  0  0  0  0  0  0  0  0  0  0
   94.5701   51.9487  267.7934 C   0  0  0  0  0  0  0  0  0  0  0  0
   94.8764   53.1831  268.3626 C   0  0  0  0  0  0  0  0  0  0  0  0
   94.1738   53.5765  269.5033 C   0  0  0  0  0  0  0  0  0  0  0  0
   93.2106   52.6774  270.0808 C   0  0  0  0  0  0  0  0  0  0  0  0
   92.8955   51.4555  269.4914 C   0  0  0  0  0  0  0  0  0  0  0  0
   94.1940   54.7417  270.3236 C   0  0  0  0  0  0  0  0  0  0  0  0
   93.3211   54.5038  271.3418 C   0  0  0  0  0  0  0  0  0  0  0  0
   92.7601   53.2789  271.2412 N   0  0  0  0  0  0  0  0  0  0  0  0
   89.7058   47.3516  265.2944 C   0  0  0  0  0  0  0  0  0  0  0  0
   91.8506   52.7297  272.2448 C   0  0  0  0  0  0  0  0  0  0  0  0
   88.4003   46.8132  265.3997 C   0  0  0  0  0  0  0  0  0  0  0  0
   87.8903   46.1026  264.3004 C   0  0  0  0  0  0  0  0  0  0  0  0
   88.6717   45.9405  263.1626 C   0  0  0  0  0  0  0  0  0  0  0  0
   89.9225   46.4384  263.0456 N   0  0  0  0  0  0  0  0  0  0  0  0
   90.4118   47.1270  264.1049 C   0  0  0  0  0  0  0  0  0  0  0  0
   87.5461   46.9593  266.6443 C   0  0  0  0  0  0  0  0  0  0  0  0
   86.6807   45.9742  266.8909 N   0  0  0  0  0  0  0  0  0  0  0  0
   87.6482   47.9220  267.4000 O   0  0  0  0  0  0  0  0  0  0  0  0
   92.2864   46.4198  266.0058 H   0  0  0  0  0  0  0  0  0  0  0  0
   91.2177   50.2895  267.4495 H   0  0  0  0  0  0  0  0  0  0  0  0
   94.5303   49.1942  266.5228 H   0  0  0  0  0  0  0  0  0  0  0  0
   97.4784   48.1027  268.0217 H   0  0  0  0  0  0  0  0  0  0  0  0
   96.7903   45.9554  267.0814 H   0  0  0  0  0  0  0  0  0  0  0  0
   95.1018   51.6335  266.9078 H   0  0  0  0  0  0  0  0  0  0  0  0
   95.6368   53.8185  267.9330 H   0  0  0  0  0  0  0  0  0  0  0  0
   92.1417   50.8069  269.9127 H   0  0  0  0  0  0  0  0  0  0  0  0
   94.7829   55.6337  270.1690 H   0  0  0  0  0  0  0  0  0  0  0  0
   93.1042   55.2074  272.1319 H   0  0  0  0  0  0  0  0  0  0  0  0
   91.6974   53.4686  273.0451 H   0  0  0  0  0  0  0  0  0  0  0  0
   90.8848   52.4936  271.7742 H   0  0  0  0  0  0  0  0  0  0  0  0
   92.2848   51.8130  272.6705 H   0  0  0  0  0  0  0  0  0  0  0  0
   86.8954   45.6841  264.3393 H   0  0  0  0  0  0  0  0  0  0  0  0
   88.2588   45.3893  262.3307 H   0  0  0  0  0  0  0  0  0  0  0  0
   91.4112   47.5291  264.0275 H   0  0  0  0  0  0  0  0  0  0  0  0
   86.1628   46.1323  267.7316 H   0  0  0  0  0  0  0  0  0  0  0  0
   87.0312   47.8296  268.1164 H   0  0  0  0  0  0  0  0  0  0  0  0
  1  2  1  0  0  0  0
  1  6  2  0  0  0  0
  2  3  1  0  0  0  0
  2 11  2  0  0  0  0
  3  4  2  0  0  0  0
  4  5  1  0  0  0  0
  4 12  1  0  0  0  0
  5  6  1  0  0  0  0
  5  8  1  0  0  0  0
  6  7  1  0  0  0  0
  7 10  2  0  0  0  0
  8  9  2  0  0  0  0
  9 10  1  0  0  0  0
 11 21  1  0  0  0  0
 12 13  2  0  0  0  0
 12 17  1  0  0  0  0
 13 14  1  0  0  0  0
 14 15  2  0  0  0  0
 15 18  1  0  0  0  0
 15 16  1  0  0  0  0
 16 17  2  0  0  0  0
 16 20  1  0  0  0  0
 18 19  2  0  0  0  0
 19 20  1  0  0  0  0
 20 22  1  0  0  0  0
 21 27  2  0  0  0  0
 21 23  1  0  0  0  0
 23 24  2  0  0  0  0
 23 28  1  0  0  0  0
 24 25  1  0  0  0  0
 25 26  2  0  0  0  0
 26 27  1  0  0  0  0
 28 29  2  0  0  0  0
 28 30  1  0  0  0  0
  1 31  1  0  0  0  0
  3 32  1  0  0  0  0
  5 33  1  0  0  0  0
  9 34  1  0  0  0  0
 10 35  1  0  0  0  0
 13 36  1  0  0  0  0
 14 37  1  0  0  0  0
 17 38  1  0  0  0  0
 18 39  1  0  0  0  0
 19 40  1  0  0  0  0
 22 41  1  0  0  0  0
 22 42  1  0  0  0  0
 22 43  1  0  0  0  0
 24 44  1  0  0  0  0
 25 45  1  0  0  0  0
 27 46  1  0  0  0  0
 29 47  1  0  0  0  0
 30 48  1  0  0  0  0
M  END
> <ID>
34

> <IC50[uM]>
0.049

$$$$
34
  -OEChem-05192314323D
 Structure written by MMmdl.
 48 52  0     0  0  0  0  0  0999 V2000
   92.5675   47.3476  266.4818 C   0  0  0  0  0  0  0  0  0  0  0  0
   91.6195   48.3446  266.6702 C   0  0  0  0  0  0  0  0  0  0  0  0
   91.9774   49.5404  267.2822 C   0  0  0  0  0  0  0  0  0  0  0  0
   93.2882   49.8046  267.6879 C   0  0  0  0  0  0  0  0  0  0  0  0
   94.2739   48.7854  267.5113 C   0  0  0  0  0  0  0  0  0  0  0  0
   93.8948   47.5437  266.9102 C   0  0  0  0  0  0  0  0  0  0  0  0
   94.7936   46.5330  266.7587 N   0  0  0  0  0  0  0  0  0  0  0  0
   95.5623   48.9682  267.9318 N   0  0  0  0  0  0  0  0  0  0  0  0
   96.4466   47.9594  267.7367 C   0  0  0  0  0  0  0  0  0  0  0  0
   96.0613   46.7461  267.1800 C   0  0  0  0  0  0  0  0  0  0  0  0
   90.2825   48.1494  266.3000 N   0  0  0  0  0  0  0  0  0  0  0  0
   93.5910   51.1031  268.3371 C   0  0  0  0  0  0  0  0  0  0  0  0
   94.5701   51.9487  267.7934 C   0  0  0  0  0  0  0  0  0  0  0  0
   94.8764   53.1831  268.3626 C   0  0  0  0  0  0  0  0  0  0  0  0
   94.1738   53.5765  269.5033 C   0  0  0  0  0  0  0  0  0  0  0  0
   93.2106   52.6774  270.0808 C   0  0  0  0  0  0  0  0  0  0  0  0
   92.8955   51.4555  269.4914 C   0  0  0  0  0  0  0  0  0  0  0  0
   94.1940   54.7417  270.3236 C   0  0  0  0  0  0  0  0  0  0  0  0
   93.3211   54.5038  271.3418 C   0  0  0  0  0  0  0  0  0  0  0  0
   92.7601   53.2789  271.2412 N   0  0  0  0  0  0  0  0  0  0  0  0
   89.7058   47.3516  265.2944 C   0  0  0  0  0  0  0  0  0  0  0  0
   91.8506   52.7297  272.2448 C   0  0  0  0  0  0  0  0  0  0  0  0
   88.4003   46.8132  265.3997 C   0  0  0  0  0  0  0  0  0  0  0  0
   87.8903   46.1026  264.3004 C   0  0  0  0  0  0  0  0  0  0  0  0
   88.6717   45.9405  263.1626 C   0  0  0  0  0  0  0  0  0  0  0  0
   89.9225   46.4384  263.0456 N   0  0  0  0  0  0  0  0  0  0  0  0
   90.4118   47.1270  264.1049 C   0  0  0  0  0  0  0  0  0  0  0  0
   87.5461   46.9593  266.6443 C   0  0  0  0  0  0  0  0  0  0  0  0
   86.6807   45.9742  266.8909 N   0  0  0  0  0  0  0  0  0  0  0  0
   87.6482   47.9220  267.4000 O   0  0  0  0  0  0  0  0  0  0  0  0
   92.2864   46.4198  266.0058 H   0  0  0  0  0  0  0  0  0  0  0  0
   91.2177   50.2895  267.4495 H   0  0  0  0  0  0  0  0  0  0  0  0
   97.2356   48.3620  267.0844 H   0  0  0  0  0  0  0  0  0  0  0  0
   96.8711   47.7254  268.7241 H   0  0  0  0  0  0  0  0  0  0  0  0
   96.7903   45.9554  267.0814 H   0  0  0  0  0  0  0  0  0  0  0  0
   95.1018   51.6335  266.9078 H   0  0  0  0  0  0  0  0  0  0  0  0
   95.6368   53.8185  267.9330 H   0  0  0  0  0  0  0  0  0  0  0  0
   92.1417   50.8069  269.9127 H   0  0  0  0  0  0  0  0  0  0  0  0
   94.7829   55.6337  270.1690 H   0  0  0  0  0  0  0  0  0  0  0  0
   93.1042   55.2074  272.1319 H   0  0  0  0  0  0  0  0  0  0  0  0
   91.6974   53.4686  273.0451 H   0  0  0  0  0  0  0  0  0  0  0  0
   90.8848   52.4936  271.7742 H   0  0  0  0  0  0  0  0  0  0  0  0
   92.2848   51.8130  272.6705 H   0  0  0  0  0  0  0  0  0  0  0  0
   86.8954   45.6841  264.3393 H   0  0  0  0  0  0  0  0  0  0  0  0
   88.2588   45.3893  262.3307 H   0  0  0  0  0  0  0  0  0  0  0  0
   91.4112   47.5291  264.0275 H   0  0  0  0  0  0  0  0  0  0  0  0
   86.1628   46.1323  267.7316 H   0  0  0  0  0  0  0  0  0  0  0  0
   87.0312   47.8296  268.1164 H   0  0  0  0  0  0  0  0  0  0  0  0
  1  2  1  0  0  0  0
  1  6  2  0  0  0  0
  2  3  1  0  0  0  0
  2 11  2  0  0  0  0
  3  4  2  0  0  0  0
  4  5  1  0  0  0  0
  4 12  1  0  0  0  0
  5  6  1  0  0  0  0
  5  8  2  0  0  0  0
  6  7  1  0  0  0  0
  7 10  2  0  0  0  0
  8  9  1  0  0  0  0
  9 10  1  0  0  0  0
 11 21  1  0  0  0  0
 12 13  2  0  0  0  0
 12 17  1  0  0  0  0
 13 14  1  0  0  0  0
 14 15  2  0  0  0  0
 15 18  1  0  0  0  0
 15 16  1  0  0  0  0
 16 17  2  0  0  0  0
 16 20  1  0  0  0  0
 18 19  2  0  0  0  0
 19 20  1  0  0  0  0
 20 22  1  0  0  0  0
 21 27  2  0  0  0  0
 21 23  1  0  0  0  0
 23 24  2  0  0  0  0
 23 28  1  0  0  0  0
 24 25  1  0  0  0  0
 25 26  2  0  0  0  0
 26 27  1  0  0  0  0
 28 29  2  0  0  0  0
 28 30  1  0  0  0  0
  1 31  1  0  0  0  0
  3 32  1  0  0  0  0
  9 33  1  0  0  0  0
  9 34  1  0  0  0  0
 10 35  1  0  0  0  0
 13 36  1  0  0  0  0
 14 37  1  0  0  0  0
 17 38  1  0  0  0  0
 18 39  1  0  0  0  0
 19 40  1  0  0  0  0
 22 41  1  0  0  0  0
 22 42  1  0  0  0  0
 22 43  1  0  0  0  0
 24 44  1  0  0  0  0
 25 45  1  0  0  0  0
 27 46  1  0  0  0  0
 29 47  1  0  0  0  0
 30 48  1  0  0  0  0
M  END
> <ID>
34

> <IC50[uM]>
0.049

$$$$
34
  -OEChem-05192314323D
 Structure written by MMmdl.
 48 52  0     0  0  0  0  0  0999 V2000
   92.5675   47.3476  266.4818 C   0  0  0  0  0  0  0  0  0  0  0  0
   91.6195   48.3446  266.6702 C   0  0  0  0  0  0  0  0  0  0  0  0
   91.9774   49.5404  267.2822 C   0  0  0  0  0  0  0  0  0  0  0  0
   93.2882   49.8046  267.6879 C   0  0  0  0  0  0  0  0  0  0  0  0
   94.2739   48.7854  267.5113 C   0  0  0  0  0  0  0  0  0  0  0  0
   93.8948   47.5437  266.9102 C   0  0  0  0  0  0  0  0  0  0  0  0
   94.7936   46.5330  266.7587 N   0  0  0  0  0  0  0  0  0  0  0  0
   95.5623   48.9682  267.9318 N   0  0  0  0  0  0  0  0  0  0  0  0
   96.4466   47.9594  267.7367 C   0  0  0  0  0  0  0  0  0  0  0  0
   96.0613   46.7461  267.1800 C   0  0  0  0  0  0  0  0  0  0  0  0
   90.2825   48.1494  266.3000 N   0  0  0  0  0  0  0  0  0  0  0  0
   93.5910   51.1031  268.3371 C   0  0  0  0  0  0  0  0  0  0  0  0
   94.5701   51.9487  267.7934 C   0  0  0  0  0  0  0  0  0  0  0  0
   94.8764   53.1831  268.3626 C   0  0  0  0  0  0  0  0  0  0  0  0
   94.1738   53.5765  269.5033 C   0  0  0  0  0  0  0  0  0  0  0  0
   93.2106   52.6774  270.0808 C   0  0  0  0  0  0  0  0  0  0  0  0
   92.8955   51.4555  269.4914 C   0  0  0  0  0  0  0  0  0  0  0  0
   94.1940   54.7417  270.3236 C   0  0  0  0  0  0  0  0  0  0  0  0
   93.3211   54.5038  271.3418 C   0  0  0  0  0  0  0  0  0  0  0  0
   92.7601   53.2789  271.2412 N   0  0  0  0  0  0  0  0  0  0  0  0
   89.7058   47.3516  265.2944 C   0  0  0  0  0  0  0  0  0  0  0  0
   91.8506   52.7297  272.2448 C   0  0  0  0  0  0  0  0  0  0  0  0
   88.4003   46.8132  265.3997 C   0  0  0  0  0  0  0  0  0  0  0  0
   87.8903   46.1026  264.3004 C   0  0  0  0  0  0  0  0  0  0  0  0
   88.6717   45.9405  263.1626 C   0  0  0  0  0  0  0  0  0  0  0  0
   89.9225   46.4384  263.0456 N   0  0  0  0  0  0  0  0  0  0  0  0
   90.4118   47.1270  264.1049 C   0  0  0  0  0  0  0  0  0  0  0  0
   87.5461   46.9593  266.6443 C   0  0  0  0  0  0  0  0  0  0  0  0
   86.6807   45.9742  266.8909 N   0  0  0  0  0  0  0  0  0  0  0  0
   87.6482   47.9220  267.4000 O   0  0  0  0  0  0  0  0  0  0  0  0
   92.2864   46.4198  266.0058 H   0  0  0  0  0  0  0  0  0  0  0  0
   91.2177   50.2895  267.4495 H   0  0  0  0  0  0  0  0  0  0  0  0
   97.4784   48.1027  268.0217 H   0  0  0  0  0  0  0  0  0  0  0  0
   96.7903   45.9554  267.0814 H   0  0  0  0  0  0  0  0  0  0  0  0
   95.1018   51.6335  266.9078 H   0  0  0  0  0  0  0  0  0  0  0  0
   95.6368   53.8185  267.9330 H   0  0  0  0  0  0  0  0  0  0  0  0
   92.1417   50.8069  269.9127 H   0  0  0  0  0  0  0  0  0  0  0  0
   94.7829   55.6337  270.1690 H   0  0  0  0  0  0  0  0  0  0  0  0
   93.1042   55.2074  272.1319 H   0  0  0  0  0  0  0  0  0  0  0  0
   91.6974   53.4686  273.0451 H   0  0  0  0  0  0  0  0  0  0  0  0
   90.8848   52.4936  271.7742 H   0  0  0  0  0  0  0  0  0  0  0  0
   92.2848   51.8130  272.6705 H   0  0  0  0  0  0  0  0  0  0  0  0
   86.8954   45.6841  264.3393 H   0  0  0  0  0  0  0  0  0  0  0  0
   88.2588   45.3893  262.3307 H   0  0  0  0  0  0  0  0  0  0  0  0
   91.4112   47.5291  264.0275 H   0  0  0  0  0  0  0  0  0  0  0  0
   86.1756   46.1759  267.7301 H   0  0  0  0  0  0  0  0  0  0  0  0
   86.0400   45.8946  266.1273 H   0  0  0  0  0  0  0  0  0  0  0  0
   87.0312   47.8296  268.1164 H   0  0  0  0  0  0  0  0  0  0  0  0
  1  2  2  0  0  0  0
  1  6  1  0  0  0  0
  2  3  1  0  0  0  0
  2 11  1  0  0  0  0
  3  4  2  0  0  0  0
  4  5  1  0  0  0  0
  4 12  1  0  0  0  0
  5  6  2  0  0  0  0
  5  8  1  0  0  0  0
  6  7  1  0  0  0  0
  7 10  2  0  0  0  0
  8  9  2  0  0  0  0
  9 10  1  0  0  0  0
 11 21  2  3  0  0  0
 12 13  2  0  0  0  0
 12 17  1  0  0  0  0
 13 14  1  0  0  0  0
 14 15  2  0  0  0  0
 15 18  1  0  0  0  0
 15 16  1  0  0  0  0
 16 17  2  0  0  0  0
 16 20  1  0  0  0  0
 18 19  2  0  0  0  0
 19 20  1  0  0  0  0
 20 22  1  0  0  0  0
 21 27  1  0  0  0  0
 21 23  1  0  0  0  0
 23 24  1  0  0  0  0
 23 28  2  3  0  0  0
 24 25  2  0  0  0  0
 25 26  1  0  0  0  0
 26 27  2  0  0  0  0
 28 29  1  0  0  0  0
 28 30  1  0  0  0  0
  1 31  1  0  0  0  0
  3 32  1  0  0  0  0
  9 33  1  0  0  0  0
 10 34  1  0  0  0  0
 13 35  1  0  0  0  0
 14 36  1  0  0  0  0
 17 37  1  0  0  0  0
 18 38  1  0  0  0  0
 19 39  1  0  0  0  0
 22 40  1  0  0  0  0
 22 41  1  0  0  0  0
 22 42  1  0  0  0  0
 24 43  1  0  0  0  0
 25 44  1  0  0  0  0
 27 45  1  0  0  0  0
 29 46  1  0  0  0  0
 29 47  1  0  0  0  0
 30 48  1  0  0  0  0
M  END
> <ID>
34

> <IC50[uM]>
0.049

$$$$
