62
  -OEChem-05192314313D
 Structure written by MMmdl.
 44 48  0     0  0  0  0  0  0999 V2000
   92.5616   47.3431  266.4810 C   0  0  0  0  0  0  0  0  0  0  0  0
   91.6083   48.3378  266.6788 C   0  0  0  0  0  0  0  0  0  0  0  0
   91.9675   49.5360  267.2894 C   0  0  0  0  0  0  0  0  0  0  0  0
   93.2833   49.8036  267.6841 C   0  0  0  0  0  0  0  0  0  0  0  0
   93.8906   47.5426  266.9050 C   0  0  0  0  0  0  0  0  0  0  0  0
   94.2692   48.7834  267.5054 C   0  0  0  0  0  0  0  0  0  0  0  0
   95.5582   48.9676  267.9253 N   0  0  0  0  0  0  0  0  0  0  0  0
   96.4459   47.9593  267.7336 C   0  0  0  0  0  0  0  0  0  0  0  0
   96.0546   46.7511  267.1656 C   0  0  0  0  0  0  0  0  0  0  0  0
   94.7960   46.5357  266.7462 N   0  0  0  0  0  0  0  0  0  0  0  0
   93.6000   51.1078  268.3203 C   0  0  0  0  0  0  0  0  0  0  0  0
   90.2728   48.1334  266.3179 N   0  0  0  0  0  0  0  0  0  0  0  0
   94.5796   51.9508  267.7841 C   0  0  0  0  0  0  0  0  0  0  0  0
   94.8793   53.1855  268.3642 C   0  0  0  0  0  0  0  0  0  0  0  0
   92.9122   51.4860  269.4818 C   0  0  0  0  0  0  0  0  0  0  0  0
   93.2219   52.7049  270.0921 C   0  0  0  0  0  0  0  0  0  0  0  0
   94.1726   53.5723  269.5148 C   0  0  0  0  0  0  0  0  0  0  0  0
   94.2452   54.7250  270.2335 N   0  0  0  0  0  0  0  0  0  0  0  0
   93.3558   54.4935  271.2868 O   0  0  0  0  0  0  0  0  0  0  0  0
   92.7185   53.2485  271.2321 N   0  0  0  0  0  0  0  0  0  0  0  0
   89.7162   47.3504  265.2906 C   0  0  0  0  0  0  0  0  0  0  0  0
   88.4248   46.8034  265.3985 C   0  0  0  0  0  0  0  0  0  0  0  0
   87.8890   46.0969  264.3132 C   0  0  0  0  0  0  0  0  0  0  0  0
   88.6624   45.9387  263.1651 C   0  0  0  0  0  0  0  0  0  0  0  0
   89.9162   46.4364  263.0442 N   0  0  0  0  0  0  0  0  0  0  0  0
   90.4181   47.1285  264.0963 C   0  0  0  0  0  0  0  0  0  0  0  0
   87.4804   46.8895  266.9250 S   0  0  0  0  0  0  0  0  0  0  0  0
   88.3878   45.6691  268.0379 C   0  0  0  0  0  0  0  0  0  0  0  0
   86.1403   46.3593  266.6660 O   0  0  0  0  0  0  0  0  0  0  0  0
   87.6424   48.2387  267.4798 O   0  0  0  0  0  0  0  0  0  0  0  0
   92.2822   46.4165  266.0016 H   0  0  0  0  0  0  0  0  0  0  0  0
   91.2069   50.2826  267.4641 H   0  0  0  0  0  0  0  0  0  0  0  0
   97.4759   48.0974  268.0276 H   0  0  0  0  0  0  0  0  0  0  0  0
   96.7844   45.9623  267.0584 H   0  0  0  0  0  0  0  0  0  0  0  0
   89.6064   48.6225  266.8807 H   0  0  0  0  0  0  0  0  0  0  0  0
   95.1168   51.6393  266.9005 H   0  0  0  0  0  0  0  0  0  0  0  0
   95.6363   53.8274  267.9383 H   0  0  0  0  0  0  0  0  0  0  0  0
   92.1519   50.8432  269.9003 H   0  0  0  0  0  0  0  0  0  0  0  0
   86.8933   45.6820  264.3659 H   0  0  0  0  0  0  0  0  0  0  0  0
   88.2424   45.3937  262.3326 H   0  0  0  0  0  0  0  0  0  0  0  0
   91.4160   47.5324  264.0101 H   0  0  0  0  0  0  0  0  0  0  0  0
   87.8950   45.6319  269.0207 H   0  0  0  0  0  0  0  0  0  0  0  0
   88.3670   44.6695  267.5793 H   0  0  0  0  0  0  0  0  0  0  0  0
   89.4314   45.9934  268.1632 H   0  0  0  0  0  0  0  0  0  0  0  0
  1  2  2  0  0  0  0
  1  5  1  0  0  0  0
  2  3  1  0  0  0  0
  2 12  1  0  0  0  0
  3  4  2  0  0  0  0
  4  6  1  0  0  0  0
  4 11  1  0  0  0  0
  5  6  2  0  0  0  0
  5 10  1  0  0  0  0
  6  7  1  0  0  0  0
  7  8  2  0  0  0  0
  8  9  1  0  0  0  0
  9 10  2  0  0  0  0
 11 13  1  0  0  0  0
 11 15  2  0  0  0  0
 12 21  1  0  0  0  0
 13 14  2  0  0  0  0
 14 17  1  0  0  0  0
 15 16  1  0  0  0  0
 16 17  1  0  0  0  0
 16 20  2  0  0  0  0
 17 18  2  0  0  0  0
 18 19  1  0  0  0  0
 19 20  1  0  0  0  0
 21 22  2  0  0  0  0
 21 26  1  0  0  0  0
 22 23  1  0  0  0  0
 22 27  1  0  0  0  0
 23 24  2  0  0  0  0
 24 25  1  0  0  0  0
 25 26  2  0  0  0  0
 27 28  1  0  0  0  0
 27 29  2  0  0  0  0
 27 30  2  0  0  0  0
  1 31  1  0  0  0  0
  3 32  1  0  0  0  0
  8 33  1  0  0  0  0
  9 34  1  0  0  0  0
 12 35  1  0  0  0  0
 13 36  1  0  0  0  0
 14 37  1  0  0  0  0
 15 38  1  0  0  0  0
 23 39  1  0  0  0  0
 24 40  1  0  0  0  0
 26 41  1  0  0  0  0
 28 42  1  0  0  0  0
 28 43  1  0  0  0  0
 28 44  1  0  0  0  0
M  END
> <ID>
62

> <IC50[uM]>
2.301

$$$$
62
  -OEChem-05192314313D
 Structure written by MMmdl.
 44 48  0     0  0  0  0  0  0999 V2000
   92.5616   47.3431  266.4810 C   0  0  0  0  0  0  0  0  0  0  0  0
   91.6083   48.3378  266.6788 C   0  0  0  0  0  0  0  0  0  0  0  0
   91.9675   49.5360  267.2894 C   0  0  0  0  0  0  0  0  0  0  0  0
   93.2833   49.8036  267.6841 C   0  0  0  0  0  0  0  0  0  0  0  0
   93.8906   47.5426  266.9050 C   0  0  0  0  0  0  0  0  0  0  0  0
   94.2692   48.7834  267.5054 C   0  0  0  0  0  0  0  0  0  0  0  0
   95.5582   48.9676  267.9253 N   0  0  0  0  0  0  0  0  0  0  0  0
   96.4459   47.9593  267.7336 C   0  0  0  0  0  0  0  0  0  0  0  0
   96.0546   46.7511  267.1656 C   0  0  0  0  0  0  0  0  0  0  0  0
   94.7960   46.5357  266.7462 N   0  0  0  0  0  0  0  0  0  0  0  0
   93.6000   51.1078  268.3203 C   0  0  0  0  0  0  0  0  0  0  0  0
   90.2728   48.1334  266.3179 N   0  0  0  0  0  0  0  0  0  0  0  0
   94.5796   51.9508  267.7841 C   0  0  0  0  0  0  0  0  0  0  0  0
   94.8793   53.1855  268.3642 C   0  0  0  0  0  0  0  0  0  0  0  0
   92.9122   51.4860  269.4818 C   0  0  0  0  0  0  0  0  0  0  0  0
   93.2219   52.7049  270.0921 C   0  0  0  0  0  0  0  0  0  0  0  0
   94.1726   53.5723  269.5148 C   0  0  0  0  0  0  0  0  0  0  0  0
   94.2452   54.7250  270.2335 N   0  0  0  0  0  0  0  0  0  0  0  0
   93.3558   54.4935  271.2868 O   0  0  0  0  0  0  0  0  0  0  0  0
   92.7185   53.2485  271.2321 N   0  0  0  0  0  0  0  0  0  0  0  0
   89.7162   47.3504  265.2906 C   0  0  0  0  0  0  0  0  0  0  0  0
   88.4248   46.8034  265.3985 C   0  0  0  0  0  0  0  0  0  0  0  0
   87.8890   46.0969  264.3132 C   0  0  0  0  0  0  0  0  0  0  0  0
   88.6624   45.9387  263.1651 C   0  0  0  0  0  0  0  0  0  0  0  0
   89.9162   46.4364  263.0442 N   0  0  0  0  0  0  0  0  0  0  0  0
   90.4181   47.1285  264.0963 C   0  0  0  0  0  0  0  0  0  0  0  0
   87.4804   46.8895  266.9250 S   0  0  0  0  0  0  0  0  0  0  0  0
   88.3878   45.6691  268.0379 C   0  0  0  0  0  0  0  0  0  0  0  0
   86.1403   46.3593  266.6660 O   0  0  0  0  0  0  0  0  0  0  0  0
   87.6424   48.2387  267.4798 O   0  0  0  0  0  0  0  0  0  0  0  0
   92.2822   46.4165  266.0016 H   0  0  0  0  0  0  0  0  0  0  0  0
   91.2069   50.2826  267.4641 H   0  0  0  0  0  0  0  0  0  0  0  0
   97.4759   48.0974  268.0276 H   0  0  0  0  0  0  0  0  0  0  0  0
   96.7844   45.9623  267.0584 H   0  0  0  0  0  0  0  0  0  0  0  0
   94.5322   45.6650  266.3311 H   0  0  0  0  0  0  0  0  0  0  0  0
   95.1168   51.6393  266.9005 H   0  0  0  0  0  0  0  0  0  0  0  0
   95.6363   53.8274  267.9383 H   0  0  0  0  0  0  0  0  0  0  0  0
   92.1519   50.8432  269.9003 H   0  0  0  0  0  0  0  0  0  0  0  0
   86.8933   45.6820  264.3659 H   0  0  0  0  0  0  0  0  0  0  0  0
   88.2424   45.3937  262.3326 H   0  0  0  0  0  0  0  0  0  0  0  0
   91.4160   47.5324  264.0101 H   0  0  0  0  0  0  0  0  0  0  0  0
   87.8950   45.6319  269.0207 H   0  0  0  0  0  0  0  0  0  0  0  0
   88.3670   44.6695  267.5793 H   0  0  0  0  0  0  0  0  0  0  0  0
   89.4314   45.9934  268.1632 H   0  0  0  0  0  0  0  0  0  0  0  0
  1  2  1  0  0  0  0
  1  5  2  0  0  0  0
  2  3  1  0  0  0  0
  2 12  2  3  0  0  0
  3  4  2  0  0  0  0
  4  6  1  0  0  0  0
  4 11  1  0  0  0  0
  5  6  1  0  0  0  0
  5 10  1  0  0  0  0
  6  7  2  0  0  0  0
  7  8  1  0  0  0  0
  8  9  2  0  0  0  0
  9 10  1  0  0  0  0
 11 13  1  0  0  0  0
 11 15  2  0  0  0  0
 12 21  1  0  0  0  0
 13 14  2  0  0  0  0
 14 17  1  0  0  0  0
 15 16  1  0  0  0  0
 16 17  1  0  0  0  0
 16 20  2  0  0  0  0
 17 18  2  0  0  0  0
 18 19  1  0  0  0  0
 19 20  1  0  0  0  0
 21 22  2  0  0  0  0
 21 26  1  0  0  0  0
 22 23  1  0  0  0  0
 22 27  1  0  0  0  0
 23 24  2  0  0  0  0
 24 25  1  0  0  0  0
 25 26  2  0  0  0  0
 27 28  1  0  0  0  0
 27 29  2  0  0  0  0
 27 30  2  0  0  0  0
  1 31  1  0  0  0  0
  3 32  1  0  0  0  0
  8 33  1  0  0  0  0
  9 34  1  0  0  0  0
 10 35  1  0  0  0  0
 13 36  1  0  0  0  0
 14 37  1  0  0  0  0
 15 38  1  0  0  0  0
 23 39  1  0  0  0  0
 24 40  1  0  0  0  0
 26 41  1  0  0  0  0
 28 42  1  0  0  0  0
 28 43  1  0  0  0  0
 28 44  1  0  0  0  0
M  END
> <ID>
62

> <IC50[uM]>
2.301

$$$$
62
  -OEChem-05192314313D
 Structure written by MMmdl.
 44 48  0     0  0  0  0  0  0999 V2000
   92.5616   47.3431  266.4810 C   0  0  0  0  0  0  0  0  0  0  0  0
   91.6083   48.3378  266.6788 C   0  0  0  0  0  0  0  0  0  0  0  0
   91.9675   49.5360  267.2894 C   0  0  0  0  0  0  0  0  0  0  0  0
   93.2833   49.8036  267.6841 C   0  0  0  0  0  0  0  0  0  0  0  0
   93.8906   47.5426  266.9050 C   0  0  0  0  0  0  0  0  0  0  0  0
   94.2692   48.7834  267.5054 C   0  0  0  0  0  0  0  0  0  0  0  0
   95.5582   48.9676  267.9253 N   0  0  0  0  0  0  0  0  0  0  0  0
   96.4459   47.9593  267.7336 C   0  0  0  0  0  0  0  0  0  0  0  0
   96.0546   46.7511  267.1656 C   0  0  0  0  0  0  0  0  0  0  0  0
   94.7960   46.5357  266.7462 N   0  0  0  0  0  0  0  0  0  0  0  0
   93.6000   51.1078  268.3203 C   0  0  0  0  0  0  0  0  0  0  0  0
   90.2728   48.1334  266.3179 N   0  0  0  0  0  0  0  0  0  0  0  0
   94.5796   51.9508  267.7841 C   0  0  0  0  0  0  0  0  0  0  0  0
   94.8793   53.1855  268.3642 C   0  0  0  0  0  0  0  0  0  0  0  0
   92.9122   51.4860  269.4818 C   0  0  0  0  0  0  0  0  0  0  0  0
   93.2219   52.7049  270.0921 C   0  0  0  0  0  0  0  0  0  0  0  0
   94.1726   53.5723  269.5148 C   0  0  0  0  0  0  0  0  0  0  0  0
   94.2452   54.7250  270.2335 N   0  0  0  0  0  0  0  0  0  0  0  0
   93.3558   54.4935  271.2868 O   0  0  0  0  0  0  0  0  0  0  0  0
   92.7185   53.2485  271.2321 N   0  0  0  0  0  0  0  0  0  0  0  0
   89.7162   47.3504  265.2906 C   0  0  0  0  0  0  0  0  0  0  0  0
   88.4248   46.8034  265.3985 C   0  0  0  0  0  0  0  0  0  0  0  0
   87.8890   46.0969  264.3132 C   0  0  0  0  0  0  0  0  0  0  0  0
   88.6624   45.9387  263.1651 C   0  0  0  0  0  0  0  0  0  0  0  0
   89.9162   46.4364  263.0442 N   0  0  0  0  0  0  0  0  0  0  0  0
   90.4181   47.1285  264.0963 C   0  0  0  0  0  0  0  0  0  0  0  0
   87.4804   46.8895  266.9250 S   0  0  0  0  0  0  0  0  0  0  0  0
   88.3878   45.6691  268.0379 C   0  0  0  0  0  0  0  0  0  0  0  0
   86.1403   46.3593  266.6660 O   0  0  0  0  0  0  0  0  0  0  0  0
   87.6424   48.2387  267.4798 O   0  0  0  0  0  0  0  0  0  0  0  0
   92.1949   46.4451  266.9997 H   0  0  0  0  0  0  0  0  0  0  0  0
   92.5997   47.1514  265.3985 H   0  0  0  0  0  0  0  0  0  0  0  0
   91.2069   50.2826  267.4641 H   0  0  0  0  0  0  0  0  0  0  0  0
   97.4759   48.0974  268.0276 H   0  0  0  0  0  0  0  0  0  0  0  0
   96.7844   45.9623  267.0584 H   0  0  0  0  0  0  0  0  0  0  0  0
   95.1168   51.6393  266.9005 H   0  0  0  0  0  0  0  0  0  0  0  0
   95.6363   53.8274  267.9383 H   0  0  0  0  0  0  0  0  0  0  0  0
   92.1519   50.8432  269.9003 H   0  0  0  0  0  0  0  0  0  0  0  0
   86.8933   45.6820  264.3659 H   0  0  0  0  0  0  0  0  0  0  0  0
   88.2424   45.3937  262.3326 H   0  0  0  0  0  0  0  0  0  0  0  0
   91.4160   47.5324  264.0101 H   0  0  0  0  0  0  0  0  0  0  0  0
   87.8950   45.6319  269.0207 H   0  0  0  0  0  0  0  0  0  0  0  0
   88.3670   44.6695  267.5793 H   0  0  0  0  0  0  0  0  0  0  0  0
   89.4314   45.9934  268.1632 H   0  0  0  0  0  0  0  0  0  0  0  0
  1  2  1  0  0  0  0
  1  5  1  0  0  0  0
  2  3  1  0  0  0  0
  2 12  2  3  0  0  0
  3  4  2  0  0  0  0
  4  6  1  0  0  0  0
  4 11  1  0  0  0  0
  5  6  2  0  0  0  0
  5 10  1  0  0  0  0
  6  7  1  0  0  0  0
  7  8  2  0  0  0  0
  8  9  1  0  0  0  0
  9 10  2  0  0  0  0
 11 13  1  0  0  0  0
 11 15  2  0  0  0  0
 12 21  1  0  0  0  0
 13 14  2  0  0  0  0
 14 17  1  0  0  0  0
 15 16  1  0  0  0  0
 16 17  1  0  0  0  0
 16 20  2  0  0  0  0
 17 18  2  0  0  0  0
 18 19  1  0  0  0  0
 19 20  1  0  0  0  0
 21 22  2  0  0  0  0
 21 26  1  0  0  0  0
 22 23  1  0  0  0  0
 22 27  1  0  0  0  0
 23 24  2  0  0  0  0
 24 25  1  0  0  0  0
 25 26  2  0  0  0  0
 27 28  1  0  0  0  0
 27 29  2  0  0  0  0
 27 30  2  0  0  0  0
  1 31  1  0  0  0  0
  1 32  1  0  0  0  0
  3 33  1  0  0  0  0
  8 34  1  0  0  0  0
  9 35  1  0  0  0  0
 13 36  1  0  0  0  0
 14 37  1  0  0  0  0
 15 38  1  0  0  0  0
 23 39  1  0  0  0  0
 24 40  1  0  0  0  0
 26 41  1  0  0  0  0
 28 42  1  0  0  0  0
 28 43  1  0  0  0  0
 28 44  1  0  0  0  0
M  END
> <ID>
62

> <IC50[uM]>
2.301

$$$$
62
  -OEChem-05192314313D
 Structure written by MMmdl.
 44 48  0     0  0  0  0  0  0999 V2000
   92.5616   47.3431  266.4810 C   0  0  0  0  0  0  0  0  0  0  0  0
   91.6083   48.3378  266.6788 C   0  0  0  0  0  0  0  0  0  0  0  0
   91.9675   49.5360  267.2894 C   0  0  0  0  0  0  0  0  0  0  0  0
   93.2833   49.8036  267.6841 C   0  0  0  0  0  0  0  0  0  0  0  0
   93.8906   47.5426  266.9050 C   0  0  0  0  0  0  0  0  0  0  0  0
   94.2692   48.7834  267.5054 C   0  0  0  0  0  0  0  0  0  0  0  0
   95.5582   48.9676  267.9253 N   0  0  0  0  0  0  0  0  0  0  0  0
   96.4459   47.9593  267.7336 C   0  0  0  0  0  0  0  0  0  0  0  0
   96.0546   46.7511  267.1656 C   0  0  0  0  0  0  0  0  0  0  0  0
   94.7960   46.5357  266.7462 N   0  0  0  0  0  0  0  0  0  0  0  0
   93.6000   51.1078  268.3203 C   0  0  0  0  0  0  0  0  0  0  0  0
   90.2728   48.1334  266.3179 N   0  0  0  0  0  0  0  0  0  0  0  0
   94.5796   51.9508  267.7841 C   0  0  0  0  0  0  0  0  0  0  0  0
   94.8793   53.1855  268.3642 C   0  0  0  0  0  0  0  0  0  0  0  0
   92.9122   51.4860  269.4818 C   0  0  0  0  0  0  0  0  0  0  0  0
   93.2219   52.7049  270.0921 C   0  0  0  0  0  0  0  0  0  0  0  0
   94.1726   53.5723  269.5148 C   0  0  0  0  0  0  0  0  0  0  0  0
   94.2452   54.7250  270.2335 N   0  0  0  0  0  0  0  0  0  0  0  0
   93.3558   54.4935  271.2868 O   0  0  0  0  0  0  0  0  0  0  0  0
   92.7185   53.2485  271.2321 N   0  0  0  0  0  0  0  0  0  0  0  0
   89.7162   47.3504  265.2906 C   0  0  0  0  0  0  0  0  0  0  0  0
   88.4248   46.8034  265.3985 C   0  0  0  0  0  0  0  0  0  0  0  0
   87.8890   46.0969  264.3132 C   0  0  0  0  0  0  0  0  0  0  0  0
   88.6624   45.9387  263.1651 C   0  0  0  0  0  0  0  0  0  0  0  0
   89.9162   46.4364  263.0442 N   0  0  0  0  0  0  0  0  0  0  0  0
   90.4181   47.1285  264.0963 C   0  0  0  0  0  0  0  0  0  0  0  0
   87.4804   46.8895  266.9250 S   0  0  0  0  0  0  0  0  0  0  0  0
   88.3878   45.6691  268.0379 C   0  0  0  0  0  0  0  0  0  0  0  0
   86.1403   46.3593  266.6660 O   0  0  0  0  0  0  0  0  0  0  0  0
   87.6424   48.2387  267.4798 O   0  0  0  0  0  0  0  0  0  0  0  0
   92.2822   46.4165  266.0016 H   0  0  0  0  0  0  0  0  0  0  0  0
   91.6887   50.3350  266.5867 H   0  0  0  0  0  0  0  0  0  0  0  0
   91.3518   49.6151  268.1975 H   0  0  0  0  0  0  0  0  0  0  0  0
   97.4759   48.0974  268.0276 H   0  0  0  0  0  0  0  0  0  0  0  0
   96.7844   45.9623  267.0584 H   0  0  0  0  0  0  0  0  0  0  0  0
   95.1168   51.6393  266.9005 H   0  0  0  0  0  0  0  0  0  0  0  0
   95.6363   53.8274  267.9383 H   0  0  0  0  0  0  0  0  0  0  0  0
   92.1519   50.8432  269.9003 H   0  0  0  0  0  0  0  0  0  0  0  0
   86.8933   45.6820  264.3659 H   0  0  0  0  0  0  0  0  0  0  0  0
   88.2424   45.3937  262.3326 H   0  0  0  0  0  0  0  0  0  0  0  0
   91.4160   47.5324  264.0101 H   0  0  0  0  0  0  0  0  0  0  0  0
   87.8950   45.6319  269.0207 H   0  0  0  0  0  0  0  0  0  0  0  0
   88.3670   44.6695  267.5793 H   0  0  0  0  0  0  0  0  0  0  0  0
   89.4314   45.9934  268.1632 H   0  0  0  0  0  0  0  0  0  0  0  0
  1  2  1  0  0  0  0
  1  5  2  0  0  0  0
  2  3  1  0  0  0  0
  2 12  2  3  0  0  0
  3  4  1  0  0  0  0
  4  6  2  0  0  0  0
  4 11  1  0  0  0  0
  5  6  1  0  0  0  0
  5 10  1  0  0  0  0
  6  7  1  0  0  0  0
  7  8  2  0  0  0  0
  8  9  1  0  0  0  0
  9 10  2  0  0  0  0
 11 13  1  0  0  0  0
 11 15  2  0  0  0  0
 12 21  1  0  0  0  0
 13 14  2  0  0  0  0
 14 17  1  0  0  0  0
 15 16  1  0  0  0  0
 16 17  1  0  0  0  0
 16 20  2  0  0  0  0
 17 18  2  0  0  0  0
 18 19  1  0  0  0  0
 19 20  1  0  0  0  0
 21 22  2  0  0  0  0
 21 26  1  0  0  0  0
 22 23  1  0  0  0  0
 22 27  1  0  0  0  0
 23 24  2  0  0  0  0
 24 25  1  0  0  0  0
 25 26  2  0  0  0  0
 27 28  1  0  0  0  0
 27 29  2  0  0  0  0
 27 30  2  0  0  0  0
  1 31  1  0  0  0  0
  3 32  1  0  0  0  0
  3 33  1  0  0  0  0
  8 34  1  0  0  0  0
  9 35  1  0  0  0  0
 13 36  1  0  0  0  0
 14 37  1  0  0  0  0
 15 38  1  0  0  0  0
 23 39  1  0  0  0  0
 24 40  1  0  0  0  0
 26 41  1  0  0  0  0
 28 42  1  0  0  0  0
 28 43  1  0  0  0  0
 28 44  1  0  0  0  0
M  END
> <ID>
62

> <IC50[uM]>
2.301

$$$$
62
  -OEChem-05192314313D
 Structure written by MMmdl.
 44 48  0     1  0  0  0  0  0999 V2000
   92.5616   47.3431  266.4810 C   0  0  0  0  0  0  0  0  0  0  0  0
   91.6083   48.3378  266.6788 C   0  0  0  0  0  0  0  0  0  0  0  0
   91.9675   49.5360  267.2894 C   0  0  0  0  0  0  0  0  0  0  0  0
   93.2833   49.8036  267.6841 C   0  0  0  0  0  0  0  0  0  0  0  0
   93.8906   47.5426  266.9050 C   0  0  0  0  0  0  0  0  0  0  0  0
   94.2692   48.7834  267.5054 C   0  0  0  0  0  0  0  0  0  0  0  0
   95.5582   48.9676  267.9253 N   0  0  0  0  0  0  0  0  0  0  0  0
   96.4459   47.9593  267.7336 C   0  0  0  0  0  0  0  0  0  0  0  0
   96.0546   46.7511  267.1656 C   0  0  0  0  0  0  0  0  0  0  0  0
   94.7960   46.5357  266.7462 N   0  0  0  0  0  0  0  0  0  0  0  0
   93.6000   51.1078  268.3203 C   0  0  0  0  0  0  0  0  0  0  0  0
   90.2728   48.1334  266.3179 N   0  0  0  0  0  0  0  0  0  0  0  0
   94.5796   51.9508  267.7841 C   0  0  0  0  0  0  0  0  0  0  0  0
   94.8793   53.1855  268.3642 C   0  0  0  0  0  0  0  0  0  0  0  0
   92.9122   51.4860  269.4818 C   0  0  0  0  0  0  0  0  0  0  0  0
   93.2219   52.7049  270.0921 C   0  0  0  0  0  0  0  0  0  0  0  0
   94.1726   53.5723  269.5148 C   0  0  0  0  0  0  0  0  0  0  0  0
   94.2452   54.7250  270.2335 N   0  0  0  0  0  0  0  0  0  0  0  0
   93.3558   54.4935  271.2868 O   0  0  0  0  0  0  0  0  0  0  0  0
   92.7185   53.2485  271.2321 N   0  0  0  0  0  0  0  0  0  0  0  0
   89.7162   47.3504  265.2906 C   0  0  0  0  0  0  0  0  0  0  0  0
   88.4248   46.8034  265.3985 C   0  0  3  0  0  0  0  0  0  0  0  0
   87.8890   46.0969  264.3132 C   0  0  0  0  0  0  0  0  0  0  0  0
   88.6624   45.9387  263.1651 C   0  0  0  0  0  0  0  0  0  0  0  0
   89.9162   46.4364  263.0442 N   0  0  0  0  0  0  0  0  0  0  0  0
   90.4181   47.1285  264.0963 C   0  0  0  0  0  0  0  0  0  0  0  0
   87.4804   46.8895  266.9250 S   0  0  0  0  0  0  0  0  0  0  0  0
   88.3878   45.6691  268.0379 C   0  0  0  0  0  0  0  0  0  0  0  0
   86.1403   46.3593  266.6660 O   0  0  0  0  0  0  0  0  0  0  0  0
   87.6424   48.2387  267.4798 O   0  0  0  0  0  0  0  0  0  0  0  0
   92.2822   46.4165  266.0016 H   0  0  0  0  0  0  0  0  0  0  0  0
   91.2069   50.2826  267.4641 H   0  0  0  0  0  0  0  0  0  0  0  0
   97.4759   48.0974  268.0276 H   0  0  0  0  0  0  0  0  0  0  0  0
   96.7844   45.9623  267.0584 H   0  0  0  0  0  0  0  0  0  0  0  0
   95.1168   51.6393  266.9005 H   0  0  0  0  0  0  0  0  0  0  0  0
   95.6363   53.8274  267.9383 H   0  0  0  0  0  0  0  0  0  0  0  0
   92.1519   50.8432  269.9003 H   0  0  0  0  0  0  0  0  0  0  0  0
   87.9718   47.7407  265.0432 H   0  0  0  0  0  0  0  0  0  0  0  0
   86.8933   45.6820  264.3659 H   0  0  0  0  0  0  0  0  0  0  0  0
   88.2424   45.3937  262.3326 H   0  0  0  0  0  0  0  0  0  0  0  0
   91.4160   47.5324  264.0101 H   0  0  0  0  0  0  0  0  0  0  0  0
   87.8950   45.6319  269.0207 H   0  0  0  0  0  0  0  0  0  0  0  0
   88.3670   44.6695  267.5793 H   0  0  0  0  0  0  0  0  0  0  0  0
   89.4314   45.9934  268.1632 H   0  0  0  0  0  0  0  0  0  0  0  0
  1  2  2  0  0  0  0
  1  5  1  0  0  0  0
  2  3  1  0  0  0  0
  2 12  1  0  0  0  0
  3  4  2  0  0  0  0
  4  6  1  0  0  0  0
  4 11  1  0  0  0  0
  5  6  2  0  0  0  0
  5 10  1  0  0  0  0
  6  7  1  0  0  0  0
  7  8  2  0  0  0  0
  8  9  1  0  0  0  0
  9 10  2  0  0  0  0
 11 13  1  0  0  0  0
 11 15  2  0  0  0  0
 12 21  2  0  0  0  0
 13 14  2  0  0  0  0
 14 17  1  0  0  0  0
 15 16  1  0  0  0  0
 16 17  1  0  0  0  0
 16 20  2  0  0  0  0
 17 18  2  0  0  0  0
 18 19  1  0  0  0  0
 19 20  1  0  0  0  0
 21 22  1  0  0  0  0
 21 26  1  0  0  0  0
 22 23  1  0  0  0  0
 22 27  1  0  0  0  0
 23 24  2  0  0  0  0
 24 25  1  0  0  0  0
 25 26  2  0  0  0  0
 27 28  1  0  0  0  0
 27 29  2  0  0  0  0
 27 30  2  0  0  0  0
  1 31  1  0  0  0  0
  3 32  1  0  0  0  0
  8 33  1  0  0  0  0
  9 34  1  0  0  0  0
 13 35  1  0  0  0  0
 14 36  1  0  0  0  0
 15 37  1  0  0  0  0
 22 38  1  0  0  0  0
 23 39  1  0  0  0  0
 24 40  1  0  0  0  0
 26 41  1  0  0  0  0
 28 42  1  0  0  0  0
 28 43  1  0  0  0  0
 28 44  1  0  0  0  0
M  END
> <ID>
62

> <IC50[uM]>
2.301

$$$$
62
  -OEChem-05192314313D
 Structure written by MMmdl.
 44 48  0     0  0  0  0  0  0999 V2000
   92.5616   47.3431  266.4810 C   0  0  0  0  0  0  0  0  0  0  0  0
   91.6083   48.3378  266.6788 C   0  0  0  0  0  0  0  0  0  0  0  0
   91.9675   49.5360  267.2894 C   0  0  0  0  0  0  0  0  0  0  0  0
   93.2833   49.8036  267.6841 C   0  0  0  0  0  0  0  0  0  0  0  0
   93.8906   47.5426  266.9050 C   0  0  0  0  0  0  0  0  0  0  0  0
   94.2692   48.7834  267.5054 C   0  0  0  0  0  0  0  0  0  0  0  0
   95.5582   48.9676  267.9253 N   0  0  0  0  0  0  0  0  0  0  0  0
   96.4459   47.9593  267.7336 C   0  0  0  0  0  0  0  0  0  0  0  0
   96.0546   46.7511  267.1656 C   0  0  0  0  0  0  0  0  0  0  0  0
   94.7960   46.5357  266.7462 N   0  0  0  0  0  0  0  0  0  0  0  0
   93.6000   51.1078  268.3203 C   0  0  0  0  0  0  0  0  0  0  0  0
   90.2728   48.1334  266.3179 N   0  0  0  0  0  0  0  0  0  0  0  0
   94.5796   51.9508  267.7841 C   0  0  0  0  0  0  0  0  0  0  0  0
   94.8793   53.1855  268.3642 C   0  0  0  0  0  0  0  0  0  0  0  0
   92.9122   51.4860  269.4818 C   0  0  0  0  0  0  0  0  0  0  0  0
   93.2219   52.7049  270.0921 C   0  0  0  0  0  0  0  0  0  0  0  0
   94.1726   53.5723  269.5148 C   0  0  0  0  0  0  0  0  0  0  0  0
   94.2452   54.7250  270.2335 N   0  0  0  0  0  0  0  0  0  0  0  0
   93.3558   54.4935  271.2868 O   0  0  0  0  0  0  0  0  0  0  0  0
   92.7185   53.2485  271.2321 N   0  0  0  0  0  0  0  0  0  0  0  0
   89.7162   47.3504  265.2906 C   0  0  0  0  0  0  0  0  0  0  0  0
   88.4248   46.8034  265.3985 C   0  0  0  0  0  0  0  0  0  0  0  0
   87.8890   46.0969  264.3132 C   0  0  0  0  0  0  0  0  0  0  0  0
   88.6624   45.9387  263.1651 C   0  0  0  0  0  0  0  0  0  0  0  0
   89.9162   46.4364  263.0442 N   0  0  0  0  0  0  0  0  0  0  0  0
   90.4181   47.1285  264.0963 C   0  0  0  0  0  0  0  0  0  0  0  0
   87.4804   46.8895  266.9250 S   0  0  0  0  0  0  0  0  0  0  0  0
   88.3878   45.6691  268.0379 C   0  0  0  0  0  0  0  0  0  0  0  0
   86.1403   46.3593  266.6660 O   0  0  0  0  0  0  0  0  0  0  0  0
   87.6424   48.2387  267.4798 O   0  0  0  0  0  0  0  0  0  0  0  0
   92.2822   46.4165  266.0016 H   0  0  0  0  0  0  0  0  0  0  0  0
   91.2069   50.2826  267.4641 H   0  0  0  0  0  0  0  0  0  0  0  0
   97.4759   48.0974  268.0276 H   0  0  0  0  0  0  0  0  0  0  0  0
   96.7844   45.9623  267.0584 H   0  0  0  0  0  0  0  0  0  0  0  0
   95.1168   51.6393  266.9005 H   0  0  0  0  0  0  0  0  0  0  0  0
   95.6363   53.8274  267.9383 H   0  0  0  0  0  0  0  0  0  0  0  0
   92.1519   50.8432  269.9003 H   0  0  0  0  0  0  0  0  0  0  0  0
   86.8933   45.6820  264.3659 H   0  0  0  0  0  0  0  0  0  0  0  0
   88.7509   44.8537  263.0069 H   0  0  0  0  0  0  0  0  0  0  0  0
   88.0800   46.3827  262.3443 H   0  0  0  0  0  0  0  0  0  0  0  0
   91.4160   47.5324  264.0101 H   0  0  0  0  0  0  0  0  0  0  0  0
   87.8950   45.6319  269.0207 H   0  0  0  0  0  0  0  0  0  0  0  0
   88.3670   44.6695  267.5793 H   0  0  0  0  0  0  0  0  0  0  0  0
   89.4314   45.9934  268.1632 H   0  0  0  0  0  0  0  0  0  0  0  0
  1  2  2  0  0  0  0
  1  5  1  0  0  0  0
  2  3  1  0  0  0  0
  2 12  1  0  0  0  0
  3  4  2  0  0  0  0
  4  6  1  0  0  0  0
  4 11  1  0  0  0  0
  5  6  2  0  0  0  0
  5 10  1  0  0  0  0
  6  7  1  0  0  0  0
  7  8  2  0  0  0  0
  8  9  1  0  0  0  0
  9 10  2  0  0  0  0
 11 13  1  0  0  0  0
 11 15  2  0  0  0  0
 12 21  2  0  0  0  0
 13 14  2  0  0  0  0
 14 17  1  0  0  0  0
 15 16  1  0  0  0  0
 16 17  1  0  0  0  0
 16 20  2  0  0  0  0
 17 18  2  0  0  0  0
 18 19  1  0  0  0  0
 19 20  1  0  0  0  0
 21 22  1  0  0  0  0
 21 26  1  0  0  0  0
 22 23  2  0  0  0  0
 22 27  1  0  0  0  0
 23 24  1  0  0  0  0
 24 25  1  0  0  0  0
 25 26  2  0  0  0  0
 27 28  1  0  0  0  0
 27 29  2  0  0  0  0
 27 30  2  0  0  0  0
  1 31  1  0  0  0  0
  3 32  1  0  0  0  0
  8 33  1  0  0  0  0
  9 34  1  0  0  0  0
 13 35  1  0  0  0  0
 14 36  1  0  0  0  0
 15 37  1  0  0  0  0
 23 38  1  0  0  0  0
 24 39  1  0  0  0  0
 24 40  1  0  0  0  0
 26 41  1  0  0  0  0
 28 42  1  0  0  0  0
 28 43  1  0  0  0  0
 28 44  1  0  0  0  0
M  END
> <ID>
62

> <IC50[uM]>
2.301

$$$$
62
  -OEChem-05192314313D
 Structure written by MMmdl.
 44 48  0     0  0  0  0  0  0999 V2000
   92.5616   47.3431  266.4810 C   0  0  0  0  0  0  0  0  0  0  0  0
   91.6083   48.3378  266.6788 C   0  0  0  0  0  0  0  0  0  0  0  0
   91.9675   49.5360  267.2894 C   0  0  0  0  0  0  0  0  0  0  0  0
   93.2833   49.8036  267.6841 C   0  0  0  0  0  0  0  0  0  0  0  0
   93.8906   47.5426  266.9050 C   0  0  0  0  0  0  0  0  0  0  0  0
   94.2692   48.7834  267.5054 C   0  0  0  0  0  0  0  0  0  0  0  0
   95.5582   48.9676  267.9253 N   0  0  0  0  0  0  0  0  0  0  0  0
   96.4459   47.9593  267.7336 C   0  0  0  0  0  0  0  0  0  0  0  0
   96.0546   46.7511  267.1656 C   0  0  0  0  0  0  0  0  0  0  0  0
   94.7960   46.5357  266.7462 N   0  0  0  0  0  0  0  0  0  0  0  0
   93.6000   51.1078  268.3203 C   0  0  0  0  0  0  0  0  0  0  0  0
   90.2728   48.1334  266.3179 N   0  0  0  0  0  0  0  0  0  0  0  0
   94.5796   51.9508  267.7841 C   0  0  0  0  0  0  0  0  0  0  0  0
   94.8793   53.1855  268.3642 C   0  0  0  0  0  0  0  0  0  0  0  0
   92.9122   51.4860  269.4818 C   0  0  0  0  0  0  0  0  0  0  0  0
   93.2219   52.7049  270.0921 C   0  0  0  0  0  0  0  0  0  0  0  0
   94.1726   53.5723  269.5148 C   0  0  0  0  0  0  0  0  0  0  0  0
   94.2452   54.7250  270.2335 N   0  0  0  0  0  0  0  0  0  0  0  0
   93.3558   54.4935  271.2868 O   0  0  0  0  0  0  0  0  0  0  0  0
   92.7185   53.2485  271.2321 N   0  0  0  0  0  0  0  0  0  0  0  0
   89.7162   47.3504  265.2906 C   0  0  0  0  0  0  0  0  0  0  0  0
   88.4248   46.8034  265.3985 C   0  0  0  0  0  0  0  0  0  0  0  0
   87.8890   46.0969  264.3132 C   0  0  0  0  0  0  0  0  0  0  0  0
   88.6624   45.9387  263.1651 C   0  0  0  0  0  0  0  0  0  0  0  0
   89.9162   46.4364  263.0442 N   0  0  0  0  0  0  0  0  0  0  0  0
   90.4181   47.1285  264.0963 C   0  0  0  0  0  0  0  0  0  0  0  0
   87.4804   46.8895  266.9250 S   0  0  0  0  0  0  0  0  0  0  0  0
   88.3878   45.6691  268.0379 C   0  0  0  0  0  0  0  0  0  0  0  0
   86.1403   46.3593  266.6660 O   0  0  0  0  0  0  0  0  0  0  0  0
   87.6424   48.2387  267.4798 O   0  0  0  0  0  0  0  0  0  0  0  0
   92.2822   46.4165  266.0016 H   0  0  0  0  0  0  0  0  0  0  0  0
   91.2069   50.2826  267.4641 H   0  0  0  0  0  0  0  0  0  0  0  0
   97.4759   48.0974  268.0276 H   0  0  0  0  0  0  0  0  0  0  0  0
   96.7844   45.9623  267.0584 H   0  0  0  0  0  0  0  0  0  0  0  0
   95.1168   51.6393  266.9005 H   0  0  0  0  0  0  0  0  0  0  0  0
   95.6363   53.8274  267.9383 H   0  0  0  0  0  0  0  0  0  0  0  0
   92.1519   50.8432  269.9003 H   0  0  0  0  0  0  0  0  0  0  0  0
   86.8933   45.6820  264.3659 H   0  0  0  0  0  0  0  0  0  0  0  0
   88.2424   45.3937  262.3326 H   0  0  0  0  0  0  0  0  0  0  0  0
   90.6679   48.1262  263.7063 H   0  0  0  0  0  0  0  0  0  0  0  0
   91.3419   46.6058  264.3849 H   0  0  0  0  0  0  0  0  0  0  0  0
   87.8950   45.6319  269.0207 H   0  0  0  0  0  0  0  0  0  0  0  0
   88.3670   44.6695  267.5793 H   0  0  0  0  0  0  0  0  0  0  0  0
   89.4314   45.9934  268.1632 H   0  0  0  0  0  0  0  0  0  0  0  0
  1  2  2  0  0  0  0
  1  5  1  0  0  0  0
  2  3  1  0  0  0  0
  2 12  1  0  0  0  0
  3  4  2  0  0  0  0
  4  6  1  0  0  0  0
  4 11  1  0  0  0  0
  5  6  2  0  0  0  0
  5 10  1  0  0  0  0
  6  7  1  0  0  0  0
  7  8  2  0  0  0  0
  8  9  1  0  0  0  0
  9 10  2  0  0  0  0
 11 13  1  0  0  0  0
 11 15  2  0  0  0  0
 12 21  2  0  0  0  0
 13 14  2  0  0  0  0
 14 17  1  0  0  0  0
 15 16  1  0  0  0  0
 16 17  1  0  0  0  0
 16 20  2  0  0  0  0
 17 18  2  0  0  0  0
 18 19  1  0  0  0  0
 19 20  1  0  0  0  0
 21 22  1  0  0  0  0
 21 26  1  0  0  0  0
 22 23  2  0  0  0  0
 22 27  1  0  0  0  0
 23 24  1  0  0  0  0
 24 25  2  0  0  0  0
 25 26  1  0  0  0  0
 27 28  1  0  0  0  0
 27 29  2  0  0  0  0
 27 30  2  0  0  0  0
  1 31  1  0  0  0  0
  3 32  1  0  0  0  0
  8 33  1  0  0  0  0
  9 34  1  0  0  0  0
 13 35  1  0  0  0  0
 14 36  1  0  0  0  0
 15 37  1  0  0  0  0
 23 38  1  0  0  0  0
 24 39  1  0  0  0  0
 26 40  1  0  0  0  0
 26 41  1  0  0  0  0
 28 42  1  0  0  0  0
 28 43  1  0  0  0  0
 28 44  1  0  0  0  0
M  END
> <ID>
62

> <IC50[uM]>
2.301

$$$$
62
  -OEChem-05192314313D
 Structure written by MMmdl.
 44 48  0     1  0  0  0  0  0999 V2000
   92.5616   47.3431  266.4810 C   0  0  0  0  0  0  0  0  0  0  0  0
   91.6083   48.3378  266.6788 C   0  0  0  0  0  0  0  0  0  0  0  0
   91.9675   49.5360  267.2894 C   0  0  0  0  0  0  0  0  0  0  0  0
   93.2833   49.8036  267.6841 C   0  0  0  0  0  0  0  0  0  0  0  0
   93.8906   47.5426  266.9050 C   0  0  0  0  0  0  0  0  0  0  0  0
   94.2692   48.7834  267.5054 C   0  0  3  0  0  0  0  0  0  0  0  0
   95.5582   48.9676  267.9253 N   0  0  0  0  0  0  0  0  0  0  0  0
   96.4459   47.9593  267.7336 C   0  0  0  0  0  0  0  0  0  0  0  0
   96.0546   46.7511  267.1656 C   0  0  0  0  0  0  0  0  0  0  0  0
   94.7960   46.5357  266.7462 N   0  0  0  0  0  0  0  0  0  0  0  0
   93.6000   51.1078  268.3203 C   0  0  0  0  0  0  0  0  0  0  0  0
   90.2728   48.1334  266.3179 N   0  0  0  0  0  0  0  0  0  0  0  0
   94.5796   51.9508  267.7841 C   0  0  0  0  0  0  0  0  0  0  0  0
   94.8793   53.1855  268.3642 C   0  0  0  0  0  0  0  0  0  0  0  0
   92.9122   51.4860  269.4818 C   0  0  0  0  0  0  0  0  0  0  0  0
   93.2219   52.7049  270.0921 C   0  0  0  0  0  0  0  0  0  0  0  0
   94.1726   53.5723  269.5148 C   0  0  0  0  0  0  0  0  0  0  0  0
   94.2452   54.7250  270.2335 N   0  0  0  0  0  0  0  0  0  0  0  0
   93.3558   54.4935  271.2868 O   0  0  0  0  0  0  0  0  0  0  0  0
   92.7185   53.2485  271.2321 N   0  0  0  0  0  0  0  0  0  0  0  0
   89.7162   47.3504  265.2906 C   0  0  0  0  0  0  0  0  0  0  0  0
   88.4248   46.8034  265.3985 C   0  0  0  0  0  0  0  0  0  0  0  0
   87.8890   46.0969  264.3132 C   0  0  0  0  0  0  0  0  0  0  0  0
   88.6624   45.9387  263.1651 C   0  0  0  0  0  0  0  0  0  0  0  0
   89.9162   46.4364  263.0442 N   0  0  0  0  0  0  0  0  0  0  0  0
   90.4181   47.1285  264.0963 C   0  0  0  0  0  0  0  0  0  0  0  0
   87.4804   46.8895  266.9250 S   0  0  0  0  0  0  0  0  0  0  0  0
   88.3878   45.6691  268.0379 C   0  0  0  0  0  0  0  0  0  0  0  0
   86.1403   46.3593  266.6660 O   0  0  0  0  0  0  0  0  0  0  0  0
   87.6424   48.2387  267.4798 O   0  0  0  0  0  0  0  0  0  0  0  0
   92.2822   46.4165  266.0016 H   0  0  0  0  0  0  0  0  0  0  0  0
   91.2069   50.2826  267.4641 H   0  0  0  0  0  0  0  0  0  0  0  0
   94.5244   49.1926  266.5168 H   0  0  0  0  0  0  0  0  0  0  0  0
   97.4759   48.0974  268.0276 H   0  0  0  0  0  0  0  0  0  0  0  0
   96.7844   45.9623  267.0584 H   0  0  0  0  0  0  0  0  0  0  0  0
   95.1168   51.6393  266.9005 H   0  0  0  0  0  0  0  0  0  0  0  0
   95.6363   53.8274  267.9383 H   0  0  0  0  0  0  0  0  0  0  0  0
   92.1519   50.8432  269.9003 H   0  0  0  0  0  0  0  0  0  0  0  0
   86.8933   45.6820  264.3659 H   0  0  0  0  0  0  0  0  0  0  0  0
   88.2424   45.3937  262.3326 H   0  0  0  0  0  0  0  0  0  0  0  0
   91.4160   47.5324  264.0101 H   0  0  0  0  0  0  0  0  0  0  0  0
   87.8950   45.6319  269.0207 H   0  0  0  0  0  0  0  0  0  0  0  0
   88.3670   44.6695  267.5793 H   0  0  0  0  0  0  0  0  0  0  0  0
   89.4314   45.9934  268.1632 H   0  0  0  0  0  0  0  0  0  0  0  0
  1  2  1  0  0  0  0
  1  5  2  0  0  0  0
  2  3  1  0  0  0  0
  2 12  2  3  0  0  0
  3  4  2  0  0  0  0
  4  6  1  0  0  0  0
  4 11  1  0  0  0  0
  5  6  1  0  0  0  0
  5 10  1  0  0  0  0
  6  7  1  0  0  0  0
  7  8  2  0  0  0  0
  8  9  1  0  0  0  0
  9 10  2  0  0  0  0
 11 13  1  0  0  0  0
 11 15  2  0  0  0  0
 12 21  1  0  0  0  0
 13 14  2  0  0  0  0
 14 17  1  0  0  0  0
 15 16  1  0  0  0  0
 16 17  1  0  0  0  0
 16 20  2  0  0  0  0
 17 18  2  0  0  0  0
 18 19  1  0  0  0  0
 19 20  1  0  0  0  0
 21 22  2  0  0  0  0
 21 26  1  0  0  0  0
 22 23  1  0  0  0  0
 22 27  1  0  0  0  0
 23 24  2  0  0  0  0
 24 25  1  0  0  0  0
 25 26  2  0  0  0  0
 27 28  1  0  0  0  0
 27 29  2  0  0  0  0
 27 30  2  0  0  0  0
  1 31  1  0  0  0  0
  3 32  1  0  0  0  0
  6 33  1  0  0  0  0
  8 34  1  0  0  0  0
  9 35  1  0  0  0  0
 13 36  1  0  0  0  0
 14 37  1  0  0  0  0
 15 38  1  0  0  0  0
 23 39  1  0  0  0  0
 24 40  1  0  0  0  0
 26 41  1  0  0  0  0
 28 42  1  0  0  0  0
 28 43  1  0  0  0  0
 28 44  1  0  0  0  0
M  END
> <ID>
62

> <IC50[uM]>
2.301

$$$$
62
  -OEChem-05192314313D
 Structure written by MMmdl.
 44 48  0     0  0  0  0  0  0999 V2000
   92.5616   47.3431  266.4810 C   0  0  0  0  0  0  0  0  0  0  0  0
   91.6083   48.3378  266.6788 C   0  0  0  0  0  0  0  0  0  0  0  0
   91.9675   49.5360  267.2894 C   0  0  0  0  0  0  0  0  0  0  0  0
   93.2833   49.8036  267.6841 C   0  0  0  0  0  0  0  0  0  0  0  0
   93.8906   47.5426  266.9050 C   0  0  0  0  0  0  0  0  0  0  0  0
   94.2692   48.7834  267.5054 C   0  0  0  0  0  0  0  0  0  0  0  0
   95.5582   48.9676  267.9253 N   0  0  0  0  0  0  0  0  0  0  0  0
   96.4459   47.9593  267.7336 C   0  0  0  0  0  0  0  0  0  0  0  0
   96.0546   46.7511  267.1656 C   0  0  0  0  0  0  0  0  0  0  0  0
   94.7960   46.5357  266.7462 N   0  0  0  0  0  0  0  0  0  0  0  0
   93.6000   51.1078  268.3203 C   0  0  0  0  0  0  0  0  0  0  0  0
   90.2728   48.1334  266.3179 N   0  0  0  0  0  0  0  0  0  0  0  0
   94.5796   51.9508  267.7841 C   0  0  0  0  0  0  0  0  0  0  0  0
   94.8793   53.1855  268.3642 C   0  0  0  0  0  0  0  0  0  0  0  0
   92.9122   51.4860  269.4818 C   0  0  0  0  0  0  0  0  0  0  0  0
   93.2219   52.7049  270.0921 C   0  0  0  0  0  0  0  0  0  0  0  0
   94.1726   53.5723  269.5148 C   0  0  0  0  0  0  0  0  0  0  0  0
   94.2452   54.7250  270.2335 N   0  0  0  0  0  0  0  0  0  0  0  0
   93.3558   54.4935  271.2868 O   0  0  0  0  0  0  0  0  0  0  0  0
   92.7185   53.2485  271.2321 N   0  0  0  0  0  0  0  0  0  0  0  0
   89.7162   47.3504  265.2906 C   0  0  0  0  0  0  0  0  0  0  0  0
   88.4248   46.8034  265.3985 C   0  0  0  0  0  0  0  0  0  0  0  0
   87.8890   46.0969  264.3132 C   0  0  0  0  0  0  0  0  0  0  0  0
   88.6624   45.9387  263.1651 C   0  0  0  0  0  0  0  0  0  0  0  0
   89.9162   46.4364  263.0442 N   0  0  0  0  0  0  0  0  0  0  0  0
   90.4181   47.1285  264.0963 C   0  0  0  0  0  0  0  0  0  0  0  0
   87.4804   46.8895  266.9250 S   0  0  0  0  0  0  0  0  0  0  0  0
   88.3878   45.6691  268.0379 C   0  0  0  0  0  0  0  0  0  0  0  0
   86.1403   46.3593  266.6660 O   0  0  0  0  0  0  0  0  0  0  0  0
   87.6424   48.2387  267.4798 O   0  0  0  0  0  0  0  0  0  0  0  0
   92.2822   46.4165  266.0016 H   0  0  0  0  0  0  0  0  0  0  0  0
   91.2069   50.2826  267.4641 H   0  0  0  0  0  0  0  0  0  0  0  0
   97.2414   48.3629  267.0900 H   0  0  0  0  0  0  0  0  0  0  0  0
   96.8617   47.7181  268.7230 H   0  0  0  0  0  0  0  0  0  0  0  0
   96.7844   45.9623  267.0584 H   0  0  0  0  0  0  0  0  0  0  0  0
   95.1168   51.6393  266.9005 H   0  0  0  0  0  0  0  0  0  0  0  0
   95.6363   53.8274  267.9383 H   0  0  0  0  0  0  0  0  0  0  0  0
   92.1519   50.8432  269.9003 H   0  0  0  0  0  0  0  0  0  0  0  0
   86.8933   45.6820  264.3659 H   0  0  0  0  0  0  0  0  0  0  0  0
   88.2424   45.3937  262.3326 H   0  0  0  0  0  0  0  0  0  0  0  0
   91.4160   47.5324  264.0101 H   0  0  0  0  0  0  0  0  0  0  0  0
   87.8950   45.6319  269.0207 H   0  0  0  0  0  0  0  0  0  0  0  0
   88.3670   44.6695  267.5793 H   0  0  0  0  0  0  0  0  0  0  0  0
   89.4314   45.9934  268.1632 H   0  0  0  0  0  0  0  0  0  0  0  0
  1  2  1  0  0  0  0
  1  5  2  0  0  0  0
  2  3  1  0  0  0  0
  2 12  2  3  0  0  0
  3  4  2  0  0  0  0
  4  6  1  0  0  0  0
  4 11  1  0  0  0  0
  5  6  1  0  0  0  0
  5 10  1  0  0  0  0
  6  7  2  0  0  0  0
  7  8  1  0  0  0  0
  8  9  1  0  0  0  0
  9 10  2  0  0  0  0
 11 13  1  0  0  0  0
 11 15  2  0  0  0  0
 12 21  1  0  0  0  0
 13 14  2  0  0  0  0
 14 17  1  0  0  0  0
 15 16  1  0  0  0  0
 16 17  1  0  0  0  0
 16 20  2  0  0  0  0
 17 18  2  0  0  0  0
 18 19  1  0  0  0  0
 19 20  1  0  0  0  0
 21 22  2  0  0  0  0
 21 26  1  0  0  0  0
 22 23  1  0  0  0  0
 22 27  1  0  0  0  0
 23 24  2  0  0  0  0
 24 25  1  0  0  0  0
 25 26  2  0  0  0  0
 27 28  1  0  0  0  0
 27 29  2  0  0  0  0
 27 30  2  0  0  0  0
  1 31  1  0  0  0  0
  3 32  1  0  0  0  0
  8 33  1  0  0  0  0
  8 34  1  0  0  0  0
  9 35  1  0  0  0  0
 13 36  1  0  0  0  0
 14 37  1  0  0  0  0
 15 38  1  0  0  0  0
 23 39  1  0  0  0  0
 24 40  1  0  0  0  0
 26 41  1  0  0  0  0
 28 42  1  0  0  0  0
 28 43  1  0  0  0  0
 28 44  1  0  0  0  0
M  END
> <ID>
62

> <IC50[uM]>
2.301

$$$$
