44
  -OEChem-05192314313D
 Structure written by MMmdl.
 43 46  0     0  0  0  0  0  0999 V2000
   93.2882   49.7977  267.6708 C   0  0  0  0  0  0  0  0  0  0  0  0
   92.5637   47.3335  266.4846 C   0  0  0  0  0  0  0  0  0  0  0  0
   91.6081   48.3294  266.6725 C   0  0  0  0  0  0  0  0  0  0  0  0
   91.9709   49.5300  267.2741 C   0  0  0  0  0  0  0  0  0  0  0  0
   93.8914   47.5333  266.9162 C   0  0  0  0  0  0  0  0  0  0  0  0
   94.2731   48.7764  267.5081 C   0  0  0  0  0  0  0  0  0  0  0  0
   95.5591   48.9636  267.9347 N   0  0  0  0  0  0  0  0  0  0  0  0
   96.4502   47.9543  267.7521 C   0  0  0  0  0  0  0  0  0  0  0  0
   96.0585   46.7408  267.1942 C   0  0  0  0  0  0  0  0  0  0  0  0
   94.7973   46.5201  266.7745 N   0  0  0  0  0  0  0  0  0  0  0  0
   93.5906   51.0998  268.3213 C   0  0  0  0  0  0  0  0  0  0  0  0
   94.5720   51.9589  267.8003 C   0  0  0  0  0  0  0  0  0  0  0  0
   94.8352   53.1750  268.4354 C   0  0  0  0  0  0  0  0  0  0  0  0
   94.1267   53.5136  269.5887 C   0  0  0  0  0  0  0  0  0  0  0  0
   93.1672   52.6613  270.1091 C   0  0  0  0  0  0  0  0  0  0  0  0
   92.8955   51.4622  269.4718 C   0  0  0  0  0  0  0  0  0  0  0  0
   90.2709   48.1207  266.3138 N   0  0  0  0  0  0  0  0  0  0  0  0
   89.7141   47.3423  265.2863 C   0  0  0  0  0  0  0  0  0  0  0  0
   90.4157   47.1268  264.0944 C   0  0  0  0  0  0  0  0  0  0  0  0
   89.9080   46.4425  263.0386 N   0  0  0  0  0  0  0  0  0  0  0  0
   88.6564   45.9405  263.1630 C   0  0  0  0  0  0  0  0  0  0  0  0
   87.8865   46.0900  264.3151 C   0  0  0  0  0  0  0  0  0  0  0  0
   88.4211   46.7995  265.3973 C   0  0  0  0  0  0  0  0  0  0  0  0
   87.4806   46.8874  266.9241 S   0  0  0  0  0  0  0  0  0  0  0  0
   86.1316   46.3840  266.6643 O   0  0  0  0  0  0  0  0  0  0  0  0
   87.6664   48.2322  267.4864 O   0  0  0  0  0  0  0  0  0  0  0  0
   88.3761   45.6411  268.0196 C   0  0  0  0  0  0  0  0  0  0  0  0
   94.4648   55.1135  270.5550 Br  0  0  0  0  0  0  0  0  0  0  0  0
   92.2870   46.4053  266.0068 H   0  0  0  0  0  0  0  0  0  0  0  0
   91.2125   50.2806  267.4410 H   0  0  0  0  0  0  0  0  0  0  0  0
   97.4801   48.0961  268.0449 H   0  0  0  0  0  0  0  0  0  0  0  0
   96.7885   45.9512  267.0946 H   0  0  0  0  0  0  0  0  0  0  0  0
   95.1207   51.6806  266.9127 H   0  0  0  0  0  0  0  0  0  0  0  0
   95.5807   53.8473  268.0371 H   0  0  0  0  0  0  0  0  0  0  0  0
   92.6330   52.9307  271.0082 H   0  0  0  0  0  0  0  0  0  0  0  0
   92.1385   50.8031  269.8704 H   0  0  0  0  0  0  0  0  0  0  0  0
   89.6045   48.6043  266.8813 H   0  0  0  0  0  0  0  0  0  0  0  0
   91.4153   47.5269  264.0107 H   0  0  0  0  0  0  0  0  0  0  0  0
   88.2347   45.3984  262.3295 H   0  0  0  0  0  0  0  0  0  0  0  0
   86.8949   45.6660  264.3721 H   0  0  0  0  0  0  0  0  0  0  0  0
   87.8872   45.5997  269.0041 H   0  0  0  0  0  0  0  0  0  0  0  0
   88.3391   44.6471  267.5499 H   0  0  0  0  0  0  0  0  0  0  0  0
   89.4248   45.9492  268.1437 H   0  0  0  0  0  0  0  0  0  0  0  0
  1  4  2  0  0  0  0
  1  6  1  0  0  0  0
  1 11  1  0  0  0  0
  2  3  2  0  0  0  0
  2  5  1  0  0  0  0
  3  4  1  0  0  0  0
  3 17  1  0  0  0  0
  5  6  2  0  0  0  0
  5 10  1  0  0  0  0
  6  7  1  0  0  0  0
  7  8  2  0  0  0  0
  8  9  1  0  0  0  0
  9 10  2  0  0  0  0
 11 12  2  0  0  0  0
 11 16  1  0  0  0  0
 12 13  1  0  0  0  0
 13 14  2  0  0  0  0
 14 15  1  0  0  0  0
 14 28  1  0  0  0  0
 15 16  2  0  0  0  0
 17 18  1  0  0  0  0
 18 19  2  0  0  0  0
 18 23  1  0  0  0  0
 19 20  1  0  0  0  0
 20 21  2  0  0  0  0
 21 22  1  0  0  0  0
 22 23  2  0  0  0  0
 23 24  1  0  0  0  0
 24 25  2  0  0  0  0
 24 26  2  0  0  0  0
 24 27  1  0  0  0  0
  2 29  1  0  0  0  0
  4 30  1  0  0  0  0
  8 31  1  0  0  0  0
  9 32  1  0  0  0  0
 12 33  1  0  0  0  0
 13 34  1  0  0  0  0
 15 35  1  0  0  0  0
 16 36  1  0  0  0  0
 17 37  1  0  0  0  0
 19 38  1  0  0  0  0
 21 39  1  0  0  0  0
 22 40  1  0  0  0  0
 27 41  1  0  0  0  0
 27 42  1  0  0  0  0
 27 43  1  0  0  0  0
M  END
> <ID>
44

> <IC50[uM]>
0.051

$$$$
44
  -OEChem-05192314313D
 Structure written by MMmdl.
 43 46  0     0  0  0  0  0  0999 V2000
   93.2882   49.7977  267.6708 C   0  0  0  0  0  0  0  0  0  0  0  0
   92.5637   47.3335  266.4846 C   0  0  0  0  0  0  0  0  0  0  0  0
   91.6081   48.3294  266.6725 C   0  0  0  0  0  0  0  0  0  0  0  0
   91.9709   49.5300  267.2741 C   0  0  0  0  0  0  0  0  0  0  0  0
   93.8914   47.5333  266.9162 C   0  0  0  0  0  0  0  0  0  0  0  0
   94.2731   48.7764  267.5081 C   0  0  0  0  0  0  0  0  0  0  0  0
   95.5591   48.9636  267.9347 N   0  0  0  0  0  0  0  0  0  0  0  0
   96.4502   47.9543  267.7521 C   0  0  0  0  0  0  0  0  0  0  0  0
   96.0585   46.7408  267.1942 C   0  0  0  0  0  0  0  0  0  0  0  0
   94.7973   46.5201  266.7745 N   0  0  0  0  0  0  0  0  0  0  0  0
   93.5906   51.0998  268.3213 C   0  0  0  0  0  0  0  0  0  0  0  0
   94.5720   51.9589  267.8003 C   0  0  0  0  0  0  0  0  0  0  0  0
   94.8352   53.1750  268.4354 C   0  0  0  0  0  0  0  0  0  0  0  0
   94.1267   53.5136  269.5887 C   0  0  0  0  0  0  0  0  0  0  0  0
   93.1672   52.6613  270.1091 C   0  0  0  0  0  0  0  0  0  0  0  0
   92.8955   51.4622  269.4718 C   0  0  0  0  0  0  0  0  0  0  0  0
   90.2709   48.1207  266.3138 N   0  0  0  0  0  0  0  0  0  0  0  0
   89.7141   47.3423  265.2863 C   0  0  0  0  0  0  0  0  0  0  0  0
   90.4157   47.1268  264.0944 C   0  0  0  0  0  0  0  0  0  0  0  0
   89.9080   46.4425  263.0386 N   0  0  0  0  0  0  0  0  0  0  0  0
   88.6564   45.9405  263.1630 C   0  0  0  0  0  0  0  0  0  0  0  0
   87.8865   46.0900  264.3151 C   0  0  0  0  0  0  0  0  0  0  0  0
   88.4211   46.7995  265.3973 C   0  0  0  0  0  0  0  0  0  0  0  0
   87.4806   46.8874  266.9241 S   0  0  0  0  0  0  0  0  0  0  0  0
   86.1316   46.3840  266.6643 O   0  0  0  0  0  0  0  0  0  0  0  0
   87.6664   48.2322  267.4864 O   0  0  0  0  0  0  0  0  0  0  0  0
   88.3761   45.6411  268.0196 C   0  0  0  0  0  0  0  0  0  0  0  0
   94.4648   55.1135  270.5550 Br  0  0  0  0  0  0  0  0  0  0  0  0
   92.2870   46.4053  266.0068 H   0  0  0  0  0  0  0  0  0  0  0  0
   91.2125   50.2806  267.4410 H   0  0  0  0  0  0  0  0  0  0  0  0
   97.4801   48.0961  268.0449 H   0  0  0  0  0  0  0  0  0  0  0  0
   96.7885   45.9512  267.0946 H   0  0  0  0  0  0  0  0  0  0  0  0
   94.5329   45.6435  266.3725 H   0  0  0  0  0  0  0  0  0  0  0  0
   95.1207   51.6806  266.9127 H   0  0  0  0  0  0  0  0  0  0  0  0
   95.5807   53.8473  268.0371 H   0  0  0  0  0  0  0  0  0  0  0  0
   92.6330   52.9307  271.0082 H   0  0  0  0  0  0  0  0  0  0  0  0
   92.1385   50.8031  269.8704 H   0  0  0  0  0  0  0  0  0  0  0  0
   91.4153   47.5269  264.0107 H   0  0  0  0  0  0  0  0  0  0  0  0
   88.2347   45.3984  262.3295 H   0  0  0  0  0  0  0  0  0  0  0  0
   86.8949   45.6660  264.3721 H   0  0  0  0  0  0  0  0  0  0  0  0
   87.8872   45.5997  269.0041 H   0  0  0  0  0  0  0  0  0  0  0  0
   88.3391   44.6471  267.5499 H   0  0  0  0  0  0  0  0  0  0  0  0
   89.4248   45.9492  268.1437 H   0  0  0  0  0  0  0  0  0  0  0  0
  1  4  2  0  0  0  0
  1  6  1  0  0  0  0
  1 11  1  0  0  0  0
  2  3  1  0  0  0  0
  2  5  2  0  0  0  0
  3  4  1  0  0  0  0
  3 17  2  3  0  0  0
  5  6  1  0  0  0  0
  5 10  1  0  0  0  0
  6  7  2  0  0  0  0
  7  8  1  0  0  0  0
  8  9  2  0  0  0  0
  9 10  1  0  0  0  0
 11 12  2  0  0  0  0
 11 16  1  0  0  0  0
 12 13  1  0  0  0  0
 13 14  2  0  0  0  0
 14 15  1  0  0  0  0
 14 28  1  0  0  0  0
 15 16  2  0  0  0  0
 17 18  1  0  0  0  0
 18 19  2  0  0  0  0
 18 23  1  0  0  0  0
 19 20  1  0  0  0  0
 20 21  2  0  0  0  0
 21 22  1  0  0  0  0
 22 23  2  0  0  0  0
 23 24  1  0  0  0  0
 24 25  2  0  0  0  0
 24 26  2  0  0  0  0
 24 27  1  0  0  0  0
  2 29  1  0  0  0  0
  4 30  1  0  0  0  0
  8 31  1  0  0  0  0
  9 32  1  0  0  0  0
 10 33  1  0  0  0  0
 12 34  1  0  0  0  0
 13 35  1  0  0  0  0
 15 36  1  0  0  0  0
 16 37  1  0  0  0  0
 19 38  1  0  0  0  0
 21 39  1  0  0  0  0
 22 40  1  0  0  0  0
 27 41  1  0  0  0  0
 27 42  1  0  0  0  0
 27 43  1  0  0  0  0
M  END
> <ID>
44

> <IC50[uM]>
0.051

$$$$
44
  -OEChem-05192314313D
 Structure written by MMmdl.
 43 46  0     0  0  0  0  0  0999 V2000
   93.2882   49.7977  267.6708 C   0  0  0  0  0  0  0  0  0  0  0  0
   92.5637   47.3335  266.4846 C   0  0  0  0  0  0  0  0  0  0  0  0
   91.6081   48.3294  266.6725 C   0  0  0  0  0  0  0  0  0  0  0  0
   91.9709   49.5300  267.2741 C   0  0  0  0  0  0  0  0  0  0  0  0
   93.8914   47.5333  266.9162 C   0  0  0  0  0  0  0  0  0  0  0  0
   94.2731   48.7764  267.5081 C   0  0  0  0  0  0  0  0  0  0  0  0
   95.5591   48.9636  267.9347 N   0  0  0  0  0  0  0  0  0  0  0  0
   96.4502   47.9543  267.7521 C   0  0  0  0  0  0  0  0  0  0  0  0
   96.0585   46.7408  267.1942 C   0  0  0  0  0  0  0  0  0  0  0  0
   94.7973   46.5201  266.7745 N   0  0  0  0  0  0  0  0  0  0  0  0
   93.5906   51.0998  268.3213 C   0  0  0  0  0  0  0  0  0  0  0  0
   94.5720   51.9589  267.8003 C   0  0  0  0  0  0  0  0  0  0  0  0
   94.8352   53.1750  268.4354 C   0  0  0  0  0  0  0  0  0  0  0  0
   94.1267   53.5136  269.5887 C   0  0  0  0  0  0  0  0  0  0  0  0
   93.1672   52.6613  270.1091 C   0  0  0  0  0  0  0  0  0  0  0  0
   92.8955   51.4622  269.4718 C   0  0  0  0  0  0  0  0  0  0  0  0
   90.2709   48.1207  266.3138 N   0  0  0  0  0  0  0  0  0  0  0  0
   89.7141   47.3423  265.2863 C   0  0  0  0  0  0  0  0  0  0  0  0
   90.4157   47.1268  264.0944 C   0  0  0  0  0  0  0  0  0  0  0  0
   89.9080   46.4425  263.0386 N   0  0  0  0  0  0  0  0  0  0  0  0
   88.6564   45.9405  263.1630 C   0  0  0  0  0  0  0  0  0  0  0  0
   87.8865   46.0900  264.3151 C   0  0  0  0  0  0  0  0  0  0  0  0
   88.4211   46.7995  265.3973 C   0  0  0  0  0  0  0  0  0  0  0  0
   87.4806   46.8874  266.9241 S   0  0  0  0  0  0  0  0  0  0  0  0
   86.1316   46.3840  266.6643 O   0  0  0  0  0  0  0  0  0  0  0  0
   87.6664   48.2322  267.4864 O   0  0  0  0  0  0  0  0  0  0  0  0
   88.3761   45.6411  268.0196 C   0  0  0  0  0  0  0  0  0  0  0  0
   94.4648   55.1135  270.5550 Br  0  0  0  0  0  0  0  0  0  0  0  0
   92.1934   46.4375  267.0042 H   0  0  0  0  0  0  0  0  0  0  0  0
   92.6085   47.1379  265.4030 H   0  0  0  0  0  0  0  0  0  0  0  0
   91.2125   50.2806  267.4410 H   0  0  0  0  0  0  0  0  0  0  0  0
   97.4801   48.0961  268.0449 H   0  0  0  0  0  0  0  0  0  0  0  0
   96.7885   45.9512  267.0946 H   0  0  0  0  0  0  0  0  0  0  0  0
   95.1207   51.6806  266.9127 H   0  0  0  0  0  0  0  0  0  0  0  0
   95.5807   53.8473  268.0371 H   0  0  0  0  0  0  0  0  0  0  0  0
   92.6330   52.9307  271.0082 H   0  0  0  0  0  0  0  0  0  0  0  0
   92.1385   50.8031  269.8704 H   0  0  0  0  0  0  0  0  0  0  0  0
   91.4153   47.5269  264.0107 H   0  0  0  0  0  0  0  0  0  0  0  0
   88.2347   45.3984  262.3295 H   0  0  0  0  0  0  0  0  0  0  0  0
   86.8949   45.6660  264.3721 H   0  0  0  0  0  0  0  0  0  0  0  0
   87.8872   45.5997  269.0041 H   0  0  0  0  0  0  0  0  0  0  0  0
   88.3391   44.6471  267.5499 H   0  0  0  0  0  0  0  0  0  0  0  0
   89.4248   45.9492  268.1437 H   0  0  0  0  0  0  0  0  0  0  0  0
  1  4  2  0  0  0  0
  1  6  1  0  0  0  0
  1 11  1  0  0  0  0
  2  3  1  0  0  0  0
  2  5  1  0  0  0  0
  3  4  1  0  0  0  0
  3 17  2  3  0  0  0
  5  6  2  0  0  0  0
  5 10  1  0  0  0  0
  6  7  1  0  0  0  0
  7  8  2  0  0  0  0
  8  9  1  0  0  0  0
  9 10  2  0  0  0  0
 11 12  2  0  0  0  0
 11 16  1  0  0  0  0
 12 13  1  0  0  0  0
 13 14  2  0  0  0  0
 14 15  1  0  0  0  0
 14 28  1  0  0  0  0
 15 16  2  0  0  0  0
 17 18  1  0  0  0  0
 18 19  2  0  0  0  0
 18 23  1  0  0  0  0
 19 20  1  0  0  0  0
 20 21  2  0  0  0  0
 21 22  1  0  0  0  0
 22 23  2  0  0  0  0
 23 24  1  0  0  0  0
 24 25  2  0  0  0  0
 24 26  2  0  0  0  0
 24 27  1  0  0  0  0
  2 29  1  0  0  0  0
  2 30  1  0  0  0  0
  4 31  1  0  0  0  0
  8 32  1  0  0  0  0
  9 33  1  0  0  0  0
 12 34  1  0  0  0  0
 13 35  1  0  0  0  0
 15 36  1  0  0  0  0
 16 37  1  0  0  0  0
 19 38  1  0  0  0  0
 21 39  1  0  0  0  0
 22 40  1  0  0  0  0
 27 41  1  0  0  0  0
 27 42  1  0  0  0  0
 27 43  1  0  0  0  0
M  END
> <ID>
44

> <IC50[uM]>
0.051

$$$$
44
  -OEChem-05192314313D
 Structure written by MMmdl.
 43 46  0     0  0  0  0  0  0999 V2000
   93.2882   49.7977  267.6708 C   0  0  0  0  0  0  0  0  0  0  0  0
   92.5637   47.3335  266.4846 C   0  0  0  0  0  0  0  0  0  0  0  0
   91.6081   48.3294  266.6725 C   0  0  0  0  0  0  0  0  0  0  0  0
   91.9709   49.5300  267.2741 C   0  0  0  0  0  0  0  0  0  0  0  0
   93.8914   47.5333  266.9162 C   0  0  0  0  0  0  0  0  0  0  0  0
   94.2731   48.7764  267.5081 C   0  0  0  0  0  0  0  0  0  0  0  0
   95.5591   48.9636  267.9347 N   0  0  0  0  0  0  0  0  0  0  0  0
   96.4502   47.9543  267.7521 C   0  0  0  0  0  0  0  0  0  0  0  0
   96.0585   46.7408  267.1942 C   0  0  0  0  0  0  0  0  0  0  0  0
   94.7973   46.5201  266.7745 N   0  0  0  0  0  0  0  0  0  0  0  0
   93.5906   51.0998  268.3213 C   0  0  0  0  0  0  0  0  0  0  0  0
   94.5720   51.9589  267.8003 C   0  0  0  0  0  0  0  0  0  0  0  0
   94.8352   53.1750  268.4354 C   0  0  0  0  0  0  0  0  0  0  0  0
   94.1267   53.5136  269.5887 C   0  0  0  0  0  0  0  0  0  0  0  0
   93.1672   52.6613  270.1091 C   0  0  0  0  0  0  0  0  0  0  0  0
   92.8955   51.4622  269.4718 C   0  0  0  0  0  0  0  0  0  0  0  0
   90.2709   48.1207  266.3138 N   0  0  0  0  0  0  0  0  0  0  0  0
   89.7141   47.3423  265.2863 C   0  0  0  0  0  0  0  0  0  0  0  0
   90.4157   47.1268  264.0944 C   0  0  0  0  0  0  0  0  0  0  0  0
   89.9080   46.4425  263.0386 N   0  0  0  0  0  0  0  0  0  0  0  0
   88.6564   45.9405  263.1630 C   0  0  0  0  0  0  0  0  0  0  0  0
   87.8865   46.0900  264.3151 C   0  0  0  0  0  0  0  0  0  0  0  0
   88.4211   46.7995  265.3973 C   0  0  0  0  0  0  0  0  0  0  0  0
   87.4806   46.8874  266.9241 S   0  0  0  0  0  0  0  0  0  0  0  0
   86.1316   46.3840  266.6643 O   0  0  0  0  0  0  0  0  0  0  0  0
   87.6664   48.2322  267.4864 O   0  0  0  0  0  0  0  0  0  0  0  0
   88.3761   45.6411  268.0196 C   0  0  0  0  0  0  0  0  0  0  0  0
   94.4648   55.1135  270.5550 Br  0  0  0  0  0  0  0  0  0  0  0  0
   92.2870   46.4053  266.0068 H   0  0  0  0  0  0  0  0  0  0  0  0
   91.3534   49.6184  268.1801 H   0  0  0  0  0  0  0  0  0  0  0  0
   91.6965   50.3244  266.5644 H   0  0  0  0  0  0  0  0  0  0  0  0
   97.4801   48.0961  268.0449 H   0  0  0  0  0  0  0  0  0  0  0  0
   96.7885   45.9512  267.0946 H   0  0  0  0  0  0  0  0  0  0  0  0
   95.1207   51.6806  266.9127 H   0  0  0  0  0  0  0  0  0  0  0  0
   95.5807   53.8473  268.0371 H   0  0  0  0  0  0  0  0  0  0  0  0
   92.6330   52.9307  271.0082 H   0  0  0  0  0  0  0  0  0  0  0  0
   92.1385   50.8031  269.8704 H   0  0  0  0  0  0  0  0  0  0  0  0
   91.4153   47.5269  264.0107 H   0  0  0  0  0  0  0  0  0  0  0  0
   88.2347   45.3984  262.3295 H   0  0  0  0  0  0  0  0  0  0  0  0
   86.8949   45.6660  264.3721 H   0  0  0  0  0  0  0  0  0  0  0  0
   87.8872   45.5997  269.0041 H   0  0  0  0  0  0  0  0  0  0  0  0
   88.3391   44.6471  267.5499 H   0  0  0  0  0  0  0  0  0  0  0  0
   89.4248   45.9492  268.1437 H   0  0  0  0  0  0  0  0  0  0  0  0
  1  4  1  0  0  0  0
  1  6  2  0  0  0  0
  1 11  1  0  0  0  0
  2  3  1  0  0  0  0
  2  5  2  0  0  0  0
  3  4  1  0  0  0  0
  3 17  2  3  0  0  0
  5  6  1  0  0  0  0
  5 10  1  0  0  0  0
  6  7  1  0  0  0  0
  7  8  2  0  0  0  0
  8  9  1  0  0  0  0
  9 10  2  0  0  0  0
 11 12  2  0  0  0  0
 11 16  1  0  0  0  0
 12 13  1  0  0  0  0
 13 14  2  0  0  0  0
 14 15  1  0  0  0  0
 14 28  1  0  0  0  0
 15 16  2  0  0  0  0
 17 18  1  0  0  0  0
 18 19  2  0  0  0  0
 18 23  1  0  0  0  0
 19 20  1  0  0  0  0
 20 21  2  0  0  0  0
 21 22  1  0  0  0  0
 22 23  2  0  0  0  0
 23 24  1  0  0  0  0
 24 25  2  0  0  0  0
 24 26  2  0  0  0  0
 24 27  1  0  0  0  0
  2 29  1  0  0  0  0
  4 30  1  0  0  0  0
  4 31  1  0  0  0  0
  8 32  1  0  0  0  0
  9 33  1  0  0  0  0
 12 34  1  0  0  0  0
 13 35  1  0  0  0  0
 15 36  1  0  0  0  0
 16 37  1  0  0  0  0
 19 38  1  0  0  0  0
 21 39  1  0  0  0  0
 22 40  1  0  0  0  0
 27 41  1  0  0  0  0
 27 42  1  0  0  0  0
 27 43  1  0  0  0  0
M  END
> <ID>
44

> <IC50[uM]>
0.051

$$$$
44
  -OEChem-05192314313D
 Structure written by MMmdl.
 43 46  0     1  0  0  0  0  0999 V2000
   93.2882   49.7977  267.6708 C   0  0  0  0  0  0  0  0  0  0  0  0
   92.5637   47.3335  266.4846 C   0  0  0  0  0  0  0  0  0  0  0  0
   91.6081   48.3294  266.6725 C   0  0  0  0  0  0  0  0  0  0  0  0
   91.9709   49.5300  267.2741 C   0  0  0  0  0  0  0  0  0  0  0  0
   93.8914   47.5333  266.9162 C   0  0  0  0  0  0  0  0  0  0  0  0
   94.2731   48.7764  267.5081 C   0  0  0  0  0  0  0  0  0  0  0  0
   95.5591   48.9636  267.9347 N   0  0  0  0  0  0  0  0  0  0  0  0
   96.4502   47.9543  267.7521 C   0  0  0  0  0  0  0  0  0  0  0  0
   96.0585   46.7408  267.1942 C   0  0  0  0  0  0  0  0  0  0  0  0
   94.7973   46.5201  266.7745 N   0  0  0  0  0  0  0  0  0  0  0  0
   93.5906   51.0998  268.3213 C   0  0  0  0  0  0  0  0  0  0  0  0
   94.5720   51.9589  267.8003 C   0  0  0  0  0  0  0  0  0  0  0  0
   94.8352   53.1750  268.4354 C   0  0  0  0  0  0  0  0  0  0  0  0
   94.1267   53.5136  269.5887 C   0  0  0  0  0  0  0  0  0  0  0  0
   93.1672   52.6613  270.1091 C   0  0  0  0  0  0  0  0  0  0  0  0
   92.8955   51.4622  269.4718 C   0  0  0  0  0  0  0  0  0  0  0  0
   90.2709   48.1207  266.3138 N   0  0  0  0  0  0  0  0  0  0  0  0
   89.7141   47.3423  265.2863 C   0  0  0  0  0  0  0  0  0  0  0  0
   90.4157   47.1268  264.0944 C   0  0  0  0  0  0  0  0  0  0  0  0
   89.9080   46.4425  263.0386 N   0  0  0  0  0  0  0  0  0  0  0  0
   88.6564   45.9405  263.1630 C   0  0  0  0  0  0  0  0  0  0  0  0
   87.8865   46.0900  264.3151 C   0  0  0  0  0  0  0  0  0  0  0  0
   88.4211   46.7995  265.3973 C   0  0  3  0  0  0  0  0  0  0  0  0
   87.4806   46.8874  266.9241 S   0  0  0  0  0  0  0  0  0  0  0  0
   86.1316   46.3840  266.6643 O   0  0  0  0  0  0  0  0  0  0  0  0
   87.6664   48.2322  267.4864 O   0  0  0  0  0  0  0  0  0  0  0  0
   88.3761   45.6411  268.0196 C   0  0  0  0  0  0  0  0  0  0  0  0
   94.4648   55.1135  270.5550 Br  0  0  0  0  0  0  0  0  0  0  0  0
   92.2870   46.4053  266.0068 H   0  0  0  0  0  0  0  0  0  0  0  0
   91.2125   50.2806  267.4410 H   0  0  0  0  0  0  0  0  0  0  0  0
   97.4801   48.0961  268.0449 H   0  0  0  0  0  0  0  0  0  0  0  0
   96.7885   45.9512  267.0946 H   0  0  0  0  0  0  0  0  0  0  0  0
   95.1207   51.6806  266.9127 H   0  0  0  0  0  0  0  0  0  0  0  0
   95.5807   53.8473  268.0371 H   0  0  0  0  0  0  0  0  0  0  0  0
   92.6330   52.9307  271.0082 H   0  0  0  0  0  0  0  0  0  0  0  0
   92.1385   50.8031  269.8704 H   0  0  0  0  0  0  0  0  0  0  0  0
   91.4153   47.5269  264.0107 H   0  0  0  0  0  0  0  0  0  0  0  0
   88.2347   45.3984  262.3295 H   0  0  0  0  0  0  0  0  0  0  0  0
   86.8949   45.6660  264.3721 H   0  0  0  0  0  0  0  0  0  0  0  0
   87.9686   47.7365  265.0405 H   0  0  0  0  0  0  0  0  0  0  0  0
   87.8872   45.5997  269.0041 H   0  0  0  0  0  0  0  0  0  0  0  0
   88.3391   44.6471  267.5499 H   0  0  0  0  0  0  0  0  0  0  0  0
   89.4248   45.9492  268.1437 H   0  0  0  0  0  0  0  0  0  0  0  0
  1  4  2  0  0  0  0
  1  6  1  0  0  0  0
  1 11  1  0  0  0  0
  2  3  2  0  0  0  0
  2  5  1  0  0  0  0
  3  4  1  0  0  0  0
  3 17  1  0  0  0  0
  5  6  2  0  0  0  0
  5 10  1  0  0  0  0
  6  7  1  0  0  0  0
  7  8  2  0  0  0  0
  8  9  1  0  0  0  0
  9 10  2  0  0  0  0
 11 12  2  0  0  0  0
 11 16  1  0  0  0  0
 12 13  1  0  0  0  0
 13 14  2  0  0  0  0
 14 15  1  0  0  0  0
 14 28  1  0  0  0  0
 15 16  2  0  0  0  0
 17 18  2  0  0  0  0
 18 19  1  0  0  0  0
 18 23  1  0  0  0  0
 19 20  2  0  0  0  0
 20 21  1  0  0  0  0
 21 22  2  0  0  0  0
 22 23  1  0  0  0  0
 23 24  1  0  0  0  0
 24 25  2  0  0  0  0
 24 26  2  0  0  0  0
 24 27  1  0  0  0  0
  2 29  1  0  0  0  0
  4 30  1  0  0  0  0
  8 31  1  0  0  0  0
  9 32  1  0  0  0  0
 12 33  1  0  0  0  0
 13 34  1  0  0  0  0
 15 35  1  0  0  0  0
 16 36  1  0  0  0  0
 19 37  1  0  0  0  0
 21 38  1  0  0  0  0
 22 39  1  0  0  0  0
 23 40  1  0  0  0  0
 27 41  1  0  0  0  0
 27 42  1  0  0  0  0
 27 43  1  0  0  0  0
M  END
> <ID>
44

> <IC50[uM]>
0.051

$$$$
44
  -OEChem-05192314313D
 Structure written by MMmdl.
 43 46  0     0  0  0  0  0  0999 V2000
   93.2882   49.7977  267.6708 C   0  0  0  0  0  0  0  0  0  0  0  0
   92.5637   47.3335  266.4846 C   0  0  0  0  0  0  0  0  0  0  0  0
   91.6081   48.3294  266.6725 C   0  0  0  0  0  0  0  0  0  0  0  0
   91.9709   49.5300  267.2741 C   0  0  0  0  0  0  0  0  0  0  0  0
   93.8914   47.5333  266.9162 C   0  0  0  0  0  0  0  0  0  0  0  0
   94.2731   48.7764  267.5081 C   0  0  0  0  0  0  0  0  0  0  0  0
   95.5591   48.9636  267.9347 N   0  0  0  0  0  0  0  0  0  0  0  0
   96.4502   47.9543  267.7521 C   0  0  0  0  0  0  0  0  0  0  0  0
   96.0585   46.7408  267.1942 C   0  0  0  0  0  0  0  0  0  0  0  0
   94.7973   46.5201  266.7745 N   0  0  0  0  0  0  0  0  0  0  0  0
   93.5906   51.0998  268.3213 C   0  0  0  0  0  0  0  0  0  0  0  0
   94.5720   51.9589  267.8003 C   0  0  0  0  0  0  0  0  0  0  0  0
   94.8352   53.1750  268.4354 C   0  0  0  0  0  0  0  0  0  0  0  0
   94.1267   53.5136  269.5887 C   0  0  0  0  0  0  0  0  0  0  0  0
   93.1672   52.6613  270.1091 C   0  0  0  0  0  0  0  0  0  0  0  0
   92.8955   51.4622  269.4718 C   0  0  0  0  0  0  0  0  0  0  0  0
   90.2709   48.1207  266.3138 N   0  0  0  0  0  0  0  0  0  0  0  0
   89.7141   47.3423  265.2863 C   0  0  0  0  0  0  0  0  0  0  0  0
   90.4157   47.1268  264.0944 C   0  0  0  0  0  0  0  0  0  0  0  0
   89.9080   46.4425  263.0386 N   0  0  0  0  0  0  0  0  0  0  0  0
   88.6564   45.9405  263.1630 C   0  0  0  0  0  0  0  0  0  0  0  0
   87.8865   46.0900  264.3151 C   0  0  0  0  0  0  0  0  0  0  0  0
   88.4211   46.7995  265.3973 C   0  0  0  0  0  0  0  0  0  0  0  0
   87.4806   46.8874  266.9241 S   0  0  0  0  0  0  0  0  0  0  0  0
   86.1316   46.3840  266.6643 O   0  0  0  0  0  0  0  0  0  0  0  0
   87.6664   48.2322  267.4864 O   0  0  0  0  0  0  0  0  0  0  0  0
   88.3761   45.6411  268.0196 C   0  0  0  0  0  0  0  0  0  0  0  0
   94.4648   55.1135  270.5550 Br  0  0  0  0  0  0  0  0  0  0  0  0
   92.2870   46.4053  266.0068 H   0  0  0  0  0  0  0  0  0  0  0  0
   91.2125   50.2806  267.4410 H   0  0  0  0  0  0  0  0  0  0  0  0
   97.4801   48.0961  268.0449 H   0  0  0  0  0  0  0  0  0  0  0  0
   96.7885   45.9512  267.0946 H   0  0  0  0  0  0  0  0  0  0  0  0
   95.1207   51.6806  266.9127 H   0  0  0  0  0  0  0  0  0  0  0  0
   95.5807   53.8473  268.0371 H   0  0  0  0  0  0  0  0  0  0  0  0
   92.6330   52.9307  271.0082 H   0  0  0  0  0  0  0  0  0  0  0  0
   92.1385   50.8031  269.8704 H   0  0  0  0  0  0  0  0  0  0  0  0
   91.4153   47.5269  264.0107 H   0  0  0  0  0  0  0  0  0  0  0  0
   88.0692   46.3868  262.3469 H   0  0  0  0  0  0  0  0  0  0  0  0
   88.7477   44.8566  262.9989 H   0  0  0  0  0  0  0  0  0  0  0  0
   86.8949   45.6660  264.3721 H   0  0  0  0  0  0  0  0  0  0  0  0
   87.8872   45.5997  269.0041 H   0  0  0  0  0  0  0  0  0  0  0  0
   88.3391   44.6471  267.5499 H   0  0  0  0  0  0  0  0  0  0  0  0
   89.4248   45.9492  268.1437 H   0  0  0  0  0  0  0  0  0  0  0  0
  1  4  2  0  0  0  0
  1  6  1  0  0  0  0
  1 11  1  0  0  0  0
  2  3  2  0  0  0  0
  2  5  1  0  0  0  0
  3  4  1  0  0  0  0
  3 17  1  0  0  0  0
  5  6  2  0  0  0  0
  5 10  1  0  0  0  0
  6  7  1  0  0  0  0
  7  8  2  0  0  0  0
  8  9  1  0  0  0  0
  9 10  2  0  0  0  0
 11 12  2  0  0  0  0
 11 16  1  0  0  0  0
 12 13  1  0  0  0  0
 13 14  2  0  0  0  0
 14 15  1  0  0  0  0
 14 28  1  0  0  0  0
 15 16  2  0  0  0  0
 17 18  2  0  0  0  0
 18 19  1  0  0  0  0
 18 23  1  0  0  0  0
 19 20  2  0  0  0  0
 20 21  1  0  0  0  0
 21 22  1  0  0  0  0
 22 23  2  0  0  0  0
 23 24  1  0  0  0  0
 24 25  2  0  0  0  0
 24 26  2  0  0  0  0
 24 27  1  0  0  0  0
  2 29  1  0  0  0  0
  4 30  1  0  0  0  0
  8 31  1  0  0  0  0
  9 32  1  0  0  0  0
 12 33  1  0  0  0  0
 13 34  1  0  0  0  0
 15 35  1  0  0  0  0
 16 36  1  0  0  0  0
 19 37  1  0  0  0  0
 21 38  1  0  0  0  0
 21 39  1  0  0  0  0
 22 40  1  0  0  0  0
 27 41  1  0  0  0  0
 27 42  1  0  0  0  0
 27 43  1  0  0  0  0
M  END
> <ID>
44

> <IC50[uM]>
0.051

$$$$
44
  -OEChem-05192314313D
 Structure written by MMmdl.
 43 46  0     0  0  0  0  0  0999 V2000
   93.2882   49.7977  267.6708 C   0  0  0  0  0  0  0  0  0  0  0  0
   92.5637   47.3335  266.4846 C   0  0  0  0  0  0  0  0  0  0  0  0
   91.6081   48.3294  266.6725 C   0  0  0  0  0  0  0  0  0  0  0  0
   91.9709   49.5300  267.2741 C   0  0  0  0  0  0  0  0  0  0  0  0
   93.8914   47.5333  266.9162 C   0  0  0  0  0  0  0  0  0  0  0  0
   94.2731   48.7764  267.5081 C   0  0  0  0  0  0  0  0  0  0  0  0
   95.5591   48.9636  267.9347 N   0  0  0  0  0  0  0  0  0  0  0  0
   96.4502   47.9543  267.7521 C   0  0  0  0  0  0  0  0  0  0  0  0
   96.0585   46.7408  267.1942 C   0  0  0  0  0  0  0  0  0  0  0  0
   94.7973   46.5201  266.7745 N   0  0  0  0  0  0  0  0  0  0  0  0
   93.5906   51.0998  268.3213 C   0  0  0  0  0  0  0  0  0  0  0  0
   94.5720   51.9589  267.8003 C   0  0  0  0  0  0  0  0  0  0  0  0
   94.8352   53.1750  268.4354 C   0  0  0  0  0  0  0  0  0  0  0  0
   94.1267   53.5136  269.5887 C   0  0  0  0  0  0  0  0  0  0  0  0
   93.1672   52.6613  270.1091 C   0  0  0  0  0  0  0  0  0  0  0  0
   92.8955   51.4622  269.4718 C   0  0  0  0  0  0  0  0  0  0  0  0
   90.2709   48.1207  266.3138 N   0  0  0  0  0  0  0  0  0  0  0  0
   89.7141   47.3423  265.2863 C   0  0  0  0  0  0  0  0  0  0  0  0
   90.4157   47.1268  264.0944 C   0  0  0  0  0  0  0  0  0  0  0  0
   89.9080   46.4425  263.0386 N   0  0  0  0  0  0  0  0  0  0  0  0
   88.6564   45.9405  263.1630 C   0  0  0  0  0  0  0  0  0  0  0  0
   87.8865   46.0900  264.3151 C   0  0  0  0  0  0  0  0  0  0  0  0
   88.4211   46.7995  265.3973 C   0  0  0  0  0  0  0  0  0  0  0  0
   87.4806   46.8874  266.9241 S   0  0  0  0  0  0  0  0  0  0  0  0
   86.1316   46.3840  266.6643 O   0  0  0  0  0  0  0  0  0  0  0  0
   87.6664   48.2322  267.4864 O   0  0  0  0  0  0  0  0  0  0  0  0
   88.3761   45.6411  268.0196 C   0  0  0  0  0  0  0  0  0  0  0  0
   94.4648   55.1135  270.5550 Br  0  0  0  0  0  0  0  0  0  0  0  0
   92.2870   46.4053  266.0068 H   0  0  0  0  0  0  0  0  0  0  0  0
   91.2125   50.2806  267.4410 H   0  0  0  0  0  0  0  0  0  0  0  0
   97.4801   48.0961  268.0449 H   0  0  0  0  0  0  0  0  0  0  0  0
   96.7885   45.9512  267.0946 H   0  0  0  0  0  0  0  0  0  0  0  0
   95.1207   51.6806  266.9127 H   0  0  0  0  0  0  0  0  0  0  0  0
   95.5807   53.8473  268.0371 H   0  0  0  0  0  0  0  0  0  0  0  0
   92.6330   52.9307  271.0082 H   0  0  0  0  0  0  0  0  0  0  0  0
   92.1385   50.8031  269.8704 H   0  0  0  0  0  0  0  0  0  0  0  0
   90.6698   48.1259  263.7106 H   0  0  0  0  0  0  0  0  0  0  0  0
   91.3373   46.5983  264.3797 H   0  0  0  0  0  0  0  0  0  0  0  0
   88.2347   45.3984  262.3295 H   0  0  0  0  0  0  0  0  0  0  0  0
   86.8949   45.6660  264.3721 H   0  0  0  0  0  0  0  0  0  0  0  0
   87.8872   45.5997  269.0041 H   0  0  0  0  0  0  0  0  0  0  0  0
   88.3391   44.6471  267.5499 H   0  0  0  0  0  0  0  0  0  0  0  0
   89.4248   45.9492  268.1437 H   0  0  0  0  0  0  0  0  0  0  0  0
  1  4  2  0  0  0  0
  1  6  1  0  0  0  0
  1 11  1  0  0  0  0
  2  3  2  0  0  0  0
  2  5  1  0  0  0  0
  3  4  1  0  0  0  0
  3 17  1  0  0  0  0
  5  6  2  0  0  0  0
  5 10  1  0  0  0  0
  6  7  1  0  0  0  0
  7  8  2  0  0  0  0
  8  9  1  0  0  0  0
  9 10  2  0  0  0  0
 11 12  2  0  0  0  0
 11 16  1  0  0  0  0
 12 13  1  0  0  0  0
 13 14  2  0  0  0  0
 14 15  1  0  0  0  0
 14 28  1  0  0  0  0
 15 16  2  0  0  0  0
 17 18  2  0  0  0  0
 18 19  1  0  0  0  0
 18 23  1  0  0  0  0
 19 20  1  0  0  0  0
 20 21  2  0  0  0  0
 21 22  1  0  0  0  0
 22 23  2  0  0  0  0
 23 24  1  0  0  0  0
 24 25  2  0  0  0  0
 24 26  2  0  0  0  0
 24 27  1  0  0  0  0
  2 29  1  0  0  0  0
  4 30  1  0  0  0  0
  8 31  1  0  0  0  0
  9 32  1  0  0  0  0
 12 33  1  0  0  0  0
 13 34  1  0  0  0  0
 15 35  1  0  0  0  0
 16 36  1  0  0  0  0
 19 37  1  0  0  0  0
 19 38  1  0  0  0  0
 21 39  1  0  0  0  0
 22 40  1  0  0  0  0
 27 41  1  0  0  0  0
 27 42  1  0  0  0  0
 27 43  1  0  0  0  0
M  END
> <ID>
44

> <IC50[uM]>
0.051

$$$$
44
  -OEChem-05192314313D
 Structure written by MMmdl.
 43 46  0     1  0  0  0  0  0999 V2000
   93.2882   49.7977  267.6708 C   0  0  0  0  0  0  0  0  0  0  0  0
   92.5637   47.3335  266.4846 C   0  0  0  0  0  0  0  0  0  0  0  0
   91.6081   48.3294  266.6725 C   0  0  0  0  0  0  0  0  0  0  0  0
   91.9709   49.5300  267.2741 C   0  0  0  0  0  0  0  0  0  0  0  0
   93.8914   47.5333  266.9162 C   0  0  0  0  0  0  0  0  0  0  0  0
   94.2731   48.7764  267.5081 C   0  0  3  0  0  0  0  0  0  0  0  0
   95.5591   48.9636  267.9347 N   0  0  0  0  0  0  0  0  0  0  0  0
   96.4502   47.9543  267.7521 C   0  0  0  0  0  0  0  0  0  0  0  0
   96.0585   46.7408  267.1942 C   0  0  0  0  0  0  0  0  0  0  0  0
   94.7973   46.5201  266.7745 N   0  0  0  0  0  0  0  0  0  0  0  0
   93.5906   51.0998  268.3213 C   0  0  0  0  0  0  0  0  0  0  0  0
   94.5720   51.9589  267.8003 C   0  0  0  0  0  0  0  0  0  0  0  0
   94.8352   53.1750  268.4354 C   0  0  0  0  0  0  0  0  0  0  0  0
   94.1267   53.5136  269.5887 C   0  0  0  0  0  0  0  0  0  0  0  0
   93.1672   52.6613  270.1091 C   0  0  0  0  0  0  0  0  0  0  0  0
   92.8955   51.4622  269.4718 C   0  0  0  0  0  0  0  0  0  0  0  0
   90.2709   48.1207  266.3138 N   0  0  0  0  0  0  0  0  0  0  0  0
   89.7141   47.3423  265.2863 C   0  0  0  0  0  0  0  0  0  0  0  0
   90.4157   47.1268  264.0944 C   0  0  0  0  0  0  0  0  0  0  0  0
   89.9080   46.4425  263.0386 N   0  0  0  0  0  0  0  0  0  0  0  0
   88.6564   45.9405  263.1630 C   0  0  0  0  0  0  0  0  0  0  0  0
   87.8865   46.0900  264.3151 C   0  0  0  0  0  0  0  0  0  0  0  0
   88.4211   46.7995  265.3973 C   0  0  0  0  0  0  0  0  0  0  0  0
   87.4806   46.8874  266.9241 S   0  0  0  0  0  0  0  0  0  0  0  0
   86.1316   46.3840  266.6643 O   0  0  0  0  0  0  0  0  0  0  0  0
   87.6664   48.2322  267.4864 O   0  0  0  0  0  0  0  0  0  0  0  0
   88.3761   45.6411  268.0196 C   0  0  0  0  0  0  0  0  0  0  0  0
   94.4648   55.1135  270.5550 Br  0  0  0  0  0  0  0  0  0  0  0  0
   92.2870   46.4053  266.0068 H   0  0  0  0  0  0  0  0  0  0  0  0
   91.2125   50.2806  267.4410 H   0  0  0  0  0  0  0  0  0  0  0  0
   94.5351   49.1763  266.5174 H   0  0  0  0  0  0  0  0  0  0  0  0
   97.4801   48.0961  268.0449 H   0  0  0  0  0  0  0  0  0  0  0  0
   96.7885   45.9512  267.0946 H   0  0  0  0  0  0  0  0  0  0  0  0
   95.1207   51.6806  266.9127 H   0  0  0  0  0  0  0  0  0  0  0  0
   95.5807   53.8473  268.0371 H   0  0  0  0  0  0  0  0  0  0  0  0
   92.6330   52.9307  271.0082 H   0  0  0  0  0  0  0  0  0  0  0  0
   92.1385   50.8031  269.8704 H   0  0  0  0  0  0  0  0  0  0  0  0
   91.4153   47.5269  264.0107 H   0  0  0  0  0  0  0  0  0  0  0  0
   88.2347   45.3984  262.3295 H   0  0  0  0  0  0  0  0  0  0  0  0
   86.8949   45.6660  264.3721 H   0  0  0  0  0  0  0  0  0  0  0  0
   87.8872   45.5997  269.0041 H   0  0  0  0  0  0  0  0  0  0  0  0
   88.3391   44.6471  267.5499 H   0  0  0  0  0  0  0  0  0  0  0  0
   89.4248   45.9492  268.1437 H   0  0  0  0  0  0  0  0  0  0  0  0
  1  4  2  0  0  0  0
  1  6  1  0  0  0  0
  1 11  1  0  0  0  0
  2  3  1  0  0  0  0
  2  5  2  0  0  0  0
  3  4  1  0  0  0  0
  3 17  2  3  0  0  0
  5  6  1  0  0  0  0
  5 10  1  0  0  0  0
  6  7  1  0  0  0  0
  7  8  2  0  0  0  0
  8  9  1  0  0  0  0
  9 10  2  0  0  0  0
 11 12  2  0  0  0  0
 11 16  1  0  0  0  0
 12 13  1  0  0  0  0
 13 14  2  0  0  0  0
 14 15  1  0  0  0  0
 14 28  1  0  0  0  0
 15 16  2  0  0  0  0
 17 18  1  0  0  0  0
 18 19  2  0  0  0  0
 18 23  1  0  0  0  0
 19 20  1  0  0  0  0
 20 21  2  0  0  0  0
 21 22  1  0  0  0  0
 22 23  2  0  0  0  0
 23 24  1  0  0  0  0
 24 25  2  0  0  0  0
 24 26  2  0  0  0  0
 24 27  1  0  0  0  0
  2 29  1  0  0  0  0
  4 30  1  0  0  0  0
  6 31  1  0  0  0  0
  8 32  1  0  0  0  0
  9 33  1  0  0  0  0
 12 34  1  0  0  0  0
 13 35  1  0  0  0  0
 15 36  1  0  0  0  0
 16 37  1  0  0  0  0
 19 38  1  0  0  0  0
 21 39  1  0  0  0  0
 22 40  1  0  0  0  0
 27 41  1  0  0  0  0
 27 42  1  0  0  0  0
 27 43  1  0  0  0  0
M  END
> <ID>
44

> <IC50[uM]>
0.051

$$$$
44
  -OEChem-05192314313D
 Structure written by MMmdl.
 43 46  0     0  0  0  0  0  0999 V2000
   93.2882   49.7977  267.6708 C   0  0  0  0  0  0  0  0  0  0  0  0
   92.5637   47.3335  266.4846 C   0  0  0  0  0  0  0  0  0  0  0  0
   91.6081   48.3294  266.6725 C   0  0  0  0  0  0  0  0  0  0  0  0
   91.9709   49.5300  267.2741 C   0  0  0  0  0  0  0  0  0  0  0  0
   93.8914   47.5333  266.9162 C   0  0  0  0  0  0  0  0  0  0  0  0
   94.2731   48.7764  267.5081 C   0  0  0  0  0  0  0  0  0  0  0  0
   95.5591   48.9636  267.9347 N   0  0  0  0  0  0  0  0  0  0  0  0
   96.4502   47.9543  267.7521 C   0  0  0  0  0  0  0  0  0  0  0  0
   96.0585   46.7408  267.1942 C   0  0  0  0  0  0  0  0  0  0  0  0
   94.7973   46.5201  266.7745 N   0  0  0  0  0  0  0  0  0  0  0  0
   93.5906   51.0998  268.3213 C   0  0  0  0  0  0  0  0  0  0  0  0
   94.5720   51.9589  267.8003 C   0  0  0  0  0  0  0  0  0  0  0  0
   94.8352   53.1750  268.4354 C   0  0  0  0  0  0  0  0  0  0  0  0
   94.1267   53.5136  269.5887 C   0  0  0  0  0  0  0  0  0  0  0  0
   93.1672   52.6613  270.1091 C   0  0  0  0  0  0  0  0  0  0  0  0
   92.8955   51.4622  269.4718 C   0  0  0  0  0  0  0  0  0  0  0  0
   90.2709   48.1207  266.3138 N   0  0  0  0  0  0  0  0  0  0  0  0
   89.7141   47.3423  265.2863 C   0  0  0  0  0  0  0  0  0  0  0  0
   90.4157   47.1268  264.0944 C   0  0  0  0  0  0  0  0  0  0  0  0
   89.9080   46.4425  263.0386 N   0  0  0  0  0  0  0  0  0  0  0  0
   88.6564   45.9405  263.1630 C   0  0  0  0  0  0  0  0  0  0  0  0
   87.8865   46.0900  264.3151 C   0  0  0  0  0  0  0  0  0  0  0  0
   88.4211   46.7995  265.3973 C   0  0  0  0  0  0  0  0  0  0  0  0
   87.4806   46.8874  266.9241 S   0  0  0  0  0  0  0  0  0  0  0  0
   86.1316   46.3840  266.6643 O   0  0  0  0  0  0  0  0  0  0  0  0
   87.6664   48.2322  267.4864 O   0  0  0  0  0  0  0  0  0  0  0  0
   88.3761   45.6411  268.0196 C   0  0  0  0  0  0  0  0  0  0  0  0
   94.4648   55.1135  270.5550 Br  0  0  0  0  0  0  0  0  0  0  0  0
   92.2870   46.4053  266.0068 H   0  0  0  0  0  0  0  0  0  0  0  0
   91.2125   50.2806  267.4410 H   0  0  0  0  0  0  0  0  0  0  0  0
   97.2453   48.3532  267.1050 H   0  0  0  0  0  0  0  0  0  0  0  0
   96.8663   47.7222  268.7436 H   0  0  0  0  0  0  0  0  0  0  0  0
   96.7885   45.9512  267.0946 H   0  0  0  0  0  0  0  0  0  0  0  0
   95.1207   51.6806  266.9127 H   0  0  0  0  0  0  0  0  0  0  0  0
   95.5807   53.8473  268.0371 H   0  0  0  0  0  0  0  0  0  0  0  0
   92.6330   52.9307  271.0082 H   0  0  0  0  0  0  0  0  0  0  0  0
   92.1385   50.8031  269.8704 H   0  0  0  0  0  0  0  0  0  0  0  0
   91.4153   47.5269  264.0107 H   0  0  0  0  0  0  0  0  0  0  0  0
   88.2347   45.3984  262.3295 H   0  0  0  0  0  0  0  0  0  0  0  0
   86.8949   45.6660  264.3721 H   0  0  0  0  0  0  0  0  0  0  0  0
   87.8872   45.5997  269.0041 H   0  0  0  0  0  0  0  0  0  0  0  0
   88.3391   44.6471  267.5499 H   0  0  0  0  0  0  0  0  0  0  0  0
   89.4248   45.9492  268.1437 H   0  0  0  0  0  0  0  0  0  0  0  0
  1  4  2  0  0  0  0
  1  6  1  0  0  0  0
  1 11  1  0  0  0  0
  2  3  1  0  0  0  0
  2  5  2  0  0  0  0
  3  4  1  0  0  0  0
  3 17  2  3  0  0  0
  5  6  1  0  0  0  0
  5 10  1  0  0  0  0
  6  7  2  0  0  0  0
  7  8  1  0  0  0  0
  8  9  1  0  0  0  0
  9 10  2  0  0  0  0
 11 12  2  0  0  0  0
 11 16  1  0  0  0  0
 12 13  1  0  0  0  0
 13 14  2  0  0  0  0
 14 15  1  0  0  0  0
 14 28  1  0  0  0  0
 15 16  2  0  0  0  0
 17 18  1  0  0  0  0
 18 19  2  0  0  0  0
 18 23  1  0  0  0  0
 19 20  1  0  0  0  0
 20 21  2  0  0  0  0
 21 22  1  0  0  0  0
 22 23  2  0  0  0  0
 23 24  1  0  0  0  0
 24 25  2  0  0  0  0
 24 26  2  0  0  0  0
 24 27  1  0  0  0  0
  2 29  1  0  0  0  0
  4 30  1  0  0  0  0
  8 31  1  0  0  0  0
  8 32  1  0  0  0  0
  9 33  1  0  0  0  0
 12 34  1  0  0  0  0
 13 35  1  0  0  0  0
 15 36  1  0  0  0  0
 16 37  1  0  0  0  0
 19 38  1  0  0  0  0
 21 39  1  0  0  0  0
 22 40  1  0  0  0  0
 27 41  1  0  0  0  0
 27 42  1  0  0  0  0
 27 43  1  0  0  0  0
M  END
> <ID>
44

> <IC50[uM]>
0.051

$$$$
