65
  -OEChem-05192314313D
 Structure written by MMmdl.
 45 49  0     0  0  0  0  0  0999 V2000
   93.2872   49.7956  267.6944 C   0  0  0  0  0  0  0  0  0  0  0  0
   92.5687   47.3376  266.4857 C   0  0  0  0  0  0  0  0  0  0  0  0
   91.6146   48.3304  266.6749 C   0  0  0  0  0  0  0  0  0  0  0  0
   91.9729   49.5341  267.2820 C   0  0  0  0  0  0  0  0  0  0  0  0
   93.8980   47.5350  266.9247 C   0  0  0  0  0  0  0  0  0  0  0  0
   94.2694   48.7811  267.5256 C   0  0  0  0  0  0  0  0  0  0  0  0
   95.5628   48.9608  267.9474 N   0  0  0  0  0  0  0  0  0  0  0  0
   96.4512   47.9559  267.7583 C   0  0  0  0  0  0  0  0  0  0  0  0
   96.0630   46.7394  267.2050 C   0  0  0  0  0  0  0  0  0  0  0  0
   94.7992   46.5230  266.7822 N   0  0  0  0  0  0  0  0  0  0  0  0
   89.7144   47.3441  265.2867 C   0  0  0  0  0  0  0  0  0  0  0  0
   90.4092   47.1460  264.0888 C   0  0  0  0  0  0  0  0  0  0  0  0
   89.9096   46.4507  263.0377 N   0  0  0  0  0  0  0  0  0  0  0  0
   88.6543   45.9413  263.1621 C   0  0  0  0  0  0  0  0  0  0  0  0
   87.8854   46.0879  264.3158 C   0  0  0  0  0  0  0  0  0  0  0  0
   88.4232   46.7977  265.3980 C   0  0  0  0  0  0  0  0  0  0  0  0
   87.4784   46.8853  266.9220 S   0  0  0  0  0  0  0  0  0  0  0  0
   86.1276   46.3963  266.6637 O   0  0  0  0  0  0  0  0  0  0  0  0
   88.3703   45.6287  268.0030 C   0  0  0  0  0  0  0  0  0  0  0  0
   87.6748   48.2291  267.4909 O   0  0  0  0  0  0  0  0  0  0  0  0
   90.2732   48.1194  266.3138 N   0  0  0  0  0  0  0  0  0  0  0  0
   93.5885   51.1029  268.3430 C   0  0  0  0  0  0  0  0  0  0  0  0
   94.5710   51.9460  267.8128 C   0  0  0  0  0  0  0  0  0  0  0  0
   94.8648   53.1857  268.4025 C   0  0  0  0  0  0  0  0  0  0  0  0
   92.8911   51.4690  269.4891 C   0  0  0  0  0  0  0  0  0  0  0  0
   93.1676   52.6956  270.0909 C   0  0  0  0  0  0  0  0  0  0  0  0
   94.1496   53.5503  269.5479 C   0  0  0  0  0  0  0  0  0  0  0  0
   94.2519   54.9826  270.5782 S   0  0  0  0  0  0  0  0  0  0  0  0
   93.0165   54.3044  271.5748 C   0  0  0  0  0  0  0  0  0  0  0  0
   92.5431   53.1496  271.2157 N   0  0  0  0  0  0  0  0  0  0  0  0
   92.2937   46.4122  266.0016 H   0  0  0  0  0  0  0  0  0  0  0  0
   91.2150   50.2873  267.4391 H   0  0  0  0  0  0  0  0  0  0  0  0
   97.4827   48.1019  268.0430 H   0  0  0  0  0  0  0  0  0  0  0  0
   96.7917   45.9478  267.1114 H   0  0  0  0  0  0  0  0  0  0  0  0
   91.3980   47.5703  263.9963 H   0  0  0  0  0  0  0  0  0  0  0  0
   88.2339   45.3982  262.3286 H   0  0  0  0  0  0  0  0  0  0  0  0
   86.8944   45.6627  264.3744 H   0  0  0  0  0  0  0  0  0  0  0  0
   87.8835   45.5807  268.9882 H   0  0  0  0  0  0  0  0  0  0  0  0
   88.3287   44.6389  267.5250 H   0  0  0  0  0  0  0  0  0  0  0  0
   89.4203   45.9320  268.1274 H   0  0  0  0  0  0  0  0  0  0  0  0
   89.6069   48.6014  266.8828 H   0  0  0  0  0  0  0  0  0  0  0  0
   95.1144   51.6369  266.9321 H   0  0  0  0  0  0  0  0  0  0  0  0
   95.6187   53.8368  267.9852 H   0  0  0  0  0  0  0  0  0  0  0  0
   92.1442   50.8109  269.9079 H   0  0  0  0  0  0  0  0  0  0  0  0
   92.6547   54.8157  272.4546 H   0  0  0  0  0  0  0  0  0  0  0  0
  1  4  2  0  0  0  0
  1  6  1  0  0  0  0
  1 22  1  0  0  0  0
  2  3  2  0  0  0  0
  2  5  1  0  0  0  0
  3  4  1  0  0  0  0
  3 21  1  0  0  0  0
  5  6  2  0  0  0  0
  5 10  1  0  0  0  0
  6  7  1  0  0  0  0
  7  8  2  0  0  0  0
  8  9  1  0  0  0  0
  9 10  2  0  0  0  0
 11 12  2  0  0  0  0
 11 16  1  0  0  0  0
 11 21  1  0  0  0  0
 12 13  1  0  0  0  0
 13 14  2  0  0  0  0
 14 15  1  0  0  0  0
 15 16  2  0  0  0  0
 16 17  1  0  0  0  0
 17 18  2  0  0  0  0
 17 19  1  0  0  0  0
 17 20  2  0  0  0  0
 22 23  2  0  0  0  0
 22 25  1  0  0  0  0
 23 24  1  0  0  0  0
 24 27  2  0  0  0  0
 25 26  2  0  0  0  0
 26 27  1  0  0  0  0
 26 30  1  0  0  0  0
 27 28  1  0  0  0  0
 28 29  1  0  0  0  0
 29 30  2  0  0  0  0
  2 31  1  0  0  0  0
  4 32  1  0  0  0  0
  8 33  1  0  0  0  0
  9 34  1  0  0  0  0
 12 35  1  0  0  0  0
 14 36  1  0  0  0  0
 15 37  1  0  0  0  0
 19 38  1  0  0  0  0
 19 39  1  0  0  0  0
 19 40  1  0  0  0  0
 21 41  1  0  0  0  0
 23 42  1  0  0  0  0
 24 43  1  0  0  0  0
 25 44  1  0  0  0  0
 29 45  1  0  0  0  0
M  END
> <ID>
65

> <IC50[uM]>
0.111

$$$$
65
  -OEChem-05192314313D
 Structure written by MMmdl.
 45 49  0     0  0  0  0  0  0999 V2000
   93.2872   49.7956  267.6944 C   0  0  0  0  0  0  0  0  0  0  0  0
   92.5687   47.3376  266.4857 C   0  0  0  0  0  0  0  0  0  0  0  0
   91.6146   48.3304  266.6749 C   0  0  0  0  0  0  0  0  0  0  0  0
   91.9729   49.5341  267.2820 C   0  0  0  0  0  0  0  0  0  0  0  0
   93.8980   47.5350  266.9247 C   0  0  0  0  0  0  0  0  0  0  0  0
   94.2694   48.7811  267.5256 C   0  0  0  0  0  0  0  0  0  0  0  0
   95.5628   48.9608  267.9474 N   0  0  0  0  0  0  0  0  0  0  0  0
   96.4512   47.9559  267.7583 C   0  0  0  0  0  0  0  0  0  0  0  0
   96.0630   46.7394  267.2050 C   0  0  0  0  0  0  0  0  0  0  0  0
   94.7992   46.5230  266.7822 N   0  0  0  0  0  0  0  0  0  0  0  0
   89.7144   47.3441  265.2867 C   0  0  0  0  0  0  0  0  0  0  0  0
   90.4092   47.1460  264.0888 C   0  0  0  0  0  0  0  0  0  0  0  0
   89.9096   46.4507  263.0377 N   0  0  0  0  0  0  0  0  0  0  0  0
   88.6543   45.9413  263.1621 C   0  0  0  0  0  0  0  0  0  0  0  0
   87.8854   46.0879  264.3158 C   0  0  0  0  0  0  0  0  0  0  0  0
   88.4232   46.7977  265.3980 C   0  0  0  0  0  0  0  0  0  0  0  0
   87.4784   46.8853  266.9220 S   0  0  0  0  0  0  0  0  0  0  0  0
   86.1276   46.3963  266.6637 O   0  0  0  0  0  0  0  0  0  0  0  0
   88.3703   45.6287  268.0030 C   0  0  0  0  0  0  0  0  0  0  0  0
   87.6748   48.2291  267.4909 O   0  0  0  0  0  0  0  0  0  0  0  0
   90.2732   48.1194  266.3138 N   0  0  0  0  0  0  0  0  0  0  0  0
   93.5885   51.1029  268.3430 C   0  0  0  0  0  0  0  0  0  0  0  0
   94.5710   51.9460  267.8128 C   0  0  0  0  0  0  0  0  0  0  0  0
   94.8648   53.1857  268.4025 C   0  0  0  0  0  0  0  0  0  0  0  0
   92.8911   51.4690  269.4891 C   0  0  0  0  0  0  0  0  0  0  0  0
   93.1676   52.6956  270.0909 C   0  0  0  0  0  0  0  0  0  0  0  0
   94.1496   53.5503  269.5479 C   0  0  0  0  0  0  0  0  0  0  0  0
   94.2519   54.9826  270.5782 S   0  0  0  0  0  0  0  0  0  0  0  0
   93.0165   54.3044  271.5748 C   0  0  0  0  0  0  0  0  0  0  0  0
   92.5431   53.1496  271.2157 N   0  0  0  0  0  0  0  0  0  0  0  0
   92.2937   46.4122  266.0016 H   0  0  0  0  0  0  0  0  0  0  0  0
   91.2150   50.2873  267.4391 H   0  0  0  0  0  0  0  0  0  0  0  0
   97.4827   48.1019  268.0430 H   0  0  0  0  0  0  0  0  0  0  0  0
   96.7917   45.9478  267.1114 H   0  0  0  0  0  0  0  0  0  0  0  0
   94.5331   45.6481  266.3775 H   0  0  0  0  0  0  0  0  0  0  0  0
   91.3980   47.5703  263.9963 H   0  0  0  0  0  0  0  0  0  0  0  0
   88.2339   45.3982  262.3286 H   0  0  0  0  0  0  0  0  0  0  0  0
   86.8944   45.6627  264.3744 H   0  0  0  0  0  0  0  0  0  0  0  0
   87.8835   45.5807  268.9882 H   0  0  0  0  0  0  0  0  0  0  0  0
   88.3287   44.6389  267.5250 H   0  0  0  0  0  0  0  0  0  0  0  0
   89.4203   45.9320  268.1274 H   0  0  0  0  0  0  0  0  0  0  0  0
   95.1144   51.6369  266.9321 H   0  0  0  0  0  0  0  0  0  0  0  0
   95.6187   53.8368  267.9852 H   0  0  0  0  0  0  0  0  0  0  0  0
   92.1442   50.8109  269.9079 H   0  0  0  0  0  0  0  0  0  0  0  0
   92.6547   54.8157  272.4546 H   0  0  0  0  0  0  0  0  0  0  0  0
  1  4  2  0  0  0  0
  1  6  1  0  0  0  0
  1 22  1  0  0  0  0
  2  3  1  0  0  0  0
  2  5  2  0  0  0  0
  3  4  1  0  0  0  0
  3 21  2  3  0  0  0
  5  6  1  0  0  0  0
  5 10  1  0  0  0  0
  6  7  2  0  0  0  0
  7  8  1  0  0  0  0
  8  9  2  0  0  0  0
  9 10  1  0  0  0  0
 11 12  2  0  0  0  0
 11 16  1  0  0  0  0
 11 21  1  0  0  0  0
 12 13  1  0  0  0  0
 13 14  2  0  0  0  0
 14 15  1  0  0  0  0
 15 16  2  0  0  0  0
 16 17  1  0  0  0  0
 17 18  2  0  0  0  0
 17 19  1  0  0  0  0
 17 20  2  0  0  0  0
 22 23  2  0  0  0  0
 22 25  1  0  0  0  0
 23 24  1  0  0  0  0
 24 27  2  0  0  0  0
 25 26  2  0  0  0  0
 26 27  1  0  0  0  0
 26 30  1  0  0  0  0
 27 28  1  0  0  0  0
 28 29  1  0  0  0  0
 29 30  2  0  0  0  0
  2 31  1  0  0  0  0
  4 32  1  0  0  0  0
  8 33  1  0  0  0  0
  9 34  1  0  0  0  0
 10 35  1  0  0  0  0
 12 36  1  0  0  0  0
 14 37  1  0  0  0  0
 15 38  1  0  0  0  0
 19 39  1  0  0  0  0
 19 40  1  0  0  0  0
 19 41  1  0  0  0  0
 23 42  1  0  0  0  0
 24 43  1  0  0  0  0
 25 44  1  0  0  0  0
 29 45  1  0  0  0  0
M  END
> <ID>
65

> <IC50[uM]>
0.111

$$$$
65
  -OEChem-05192314313D
 Structure written by MMmdl.
 45 49  0     0  0  0  0  0  0999 V2000
   93.2872   49.7956  267.6944 C   0  0  0  0  0  0  0  0  0  0  0  0
   92.5687   47.3376  266.4857 C   0  0  0  0  0  0  0  0  0  0  0  0
   91.6146   48.3304  266.6749 C   0  0  0  0  0  0  0  0  0  0  0  0
   91.9729   49.5341  267.2820 C   0  0  0  0  0  0  0  0  0  0  0  0
   93.8980   47.5350  266.9247 C   0  0  0  0  0  0  0  0  0  0  0  0
   94.2694   48.7811  267.5256 C   0  0  0  0  0  0  0  0  0  0  0  0
   95.5628   48.9608  267.9474 N   0  0  0  0  0  0  0  0  0  0  0  0
   96.4512   47.9559  267.7583 C   0  0  0  0  0  0  0  0  0  0  0  0
   96.0630   46.7394  267.2050 C   0  0  0  0  0  0  0  0  0  0  0  0
   94.7992   46.5230  266.7822 N   0  0  0  0  0  0  0  0  0  0  0  0
   89.7144   47.3441  265.2867 C   0  0  0  0  0  0  0  0  0  0  0  0
   90.4092   47.1460  264.0888 C   0  0  0  0  0  0  0  0  0  0  0  0
   89.9096   46.4507  263.0377 N   0  0  0  0  0  0  0  0  0  0  0  0
   88.6543   45.9413  263.1621 C   0  0  0  0  0  0  0  0  0  0  0  0
   87.8854   46.0879  264.3158 C   0  0  0  0  0  0  0  0  0  0  0  0
   88.4232   46.7977  265.3980 C   0  0  0  0  0  0  0  0  0  0  0  0
   87.4784   46.8853  266.9220 S   0  0  0  0  0  0  0  0  0  0  0  0
   86.1276   46.3963  266.6637 O   0  0  0  0  0  0  0  0  0  0  0  0
   88.3703   45.6287  268.0030 C   0  0  0  0  0  0  0  0  0  0  0  0
   87.6748   48.2291  267.4909 O   0  0  0  0  0  0  0  0  0  0  0  0
   90.2732   48.1194  266.3138 N   0  0  0  0  0  0  0  0  0  0  0  0
   93.5885   51.1029  268.3430 C   0  0  0  0  0  0  0  0  0  0  0  0
   94.5710   51.9460  267.8128 C   0  0  0  0  0  0  0  0  0  0  0  0
   94.8648   53.1857  268.4025 C   0  0  0  0  0  0  0  0  0  0  0  0
   92.8911   51.4690  269.4891 C   0  0  0  0  0  0  0  0  0  0  0  0
   93.1676   52.6956  270.0909 C   0  0  0  0  0  0  0  0  0  0  0  0
   94.1496   53.5503  269.5479 C   0  0  0  0  0  0  0  0  0  0  0  0
   94.2519   54.9826  270.5782 S   0  0  0  0  0  0  0  0  0  0  0  0
   93.0165   54.3044  271.5748 C   0  0  0  0  0  0  0  0  0  0  0  0
   92.5431   53.1496  271.2157 N   0  0  0  0  0  0  0  0  0  0  0  0
   92.1962   46.4388  266.9988 H   0  0  0  0  0  0  0  0  0  0  0  0
   92.6178   47.1480  265.4033 H   0  0  0  0  0  0  0  0  0  0  0  0
   91.2150   50.2873  267.4391 H   0  0  0  0  0  0  0  0  0  0  0  0
   97.4827   48.1019  268.0430 H   0  0  0  0  0  0  0  0  0  0  0  0
   96.7917   45.9478  267.1114 H   0  0  0  0  0  0  0  0  0  0  0  0
   91.3980   47.5703  263.9963 H   0  0  0  0  0  0  0  0  0  0  0  0
   88.2339   45.3982  262.3286 H   0  0  0  0  0  0  0  0  0  0  0  0
   86.8944   45.6627  264.3744 H   0  0  0  0  0  0  0  0  0  0  0  0
   87.8835   45.5807  268.9882 H   0  0  0  0  0  0  0  0  0  0  0  0
   88.3287   44.6389  267.5250 H   0  0  0  0  0  0  0  0  0  0  0  0
   89.4203   45.9320  268.1274 H   0  0  0  0  0  0  0  0  0  0  0  0
   95.1144   51.6369  266.9321 H   0  0  0  0  0  0  0  0  0  0  0  0
   95.6187   53.8368  267.9852 H   0  0  0  0  0  0  0  0  0  0  0  0
   92.1442   50.8109  269.9079 H   0  0  0  0  0  0  0  0  0  0  0  0
   92.6547   54.8157  272.4546 H   0  0  0  0  0  0  0  0  0  0  0  0
  1  4  2  0  0  0  0
  1  6  1  0  0  0  0
  1 22  1  0  0  0  0
  2  3  1  0  0  0  0
  2  5  1  0  0  0  0
  3  4  1  0  0  0  0
  3 21  2  3  0  0  0
  5  6  2  0  0  0  0
  5 10  1  0  0  0  0
  6  7  1  0  0  0  0
  7  8  2  0  0  0  0
  8  9  1  0  0  0  0
  9 10  2  0  0  0  0
 11 12  2  0  0  0  0
 11 16  1  0  0  0  0
 11 21  1  0  0  0  0
 12 13  1  0  0  0  0
 13 14  2  0  0  0  0
 14 15  1  0  0  0  0
 15 16  2  0  0  0  0
 16 17  1  0  0  0  0
 17 18  2  0  0  0  0
 17 19  1  0  0  0  0
 17 20  2  0  0  0  0
 22 23  2  0  0  0  0
 22 25  1  0  0  0  0
 23 24  1  0  0  0  0
 24 27  2  0  0  0  0
 25 26  2  0  0  0  0
 26 27  1  0  0  0  0
 26 30  1  0  0  0  0
 27 28  1  0  0  0  0
 28 29  1  0  0  0  0
 29 30  2  0  0  0  0
  2 31  1  0  0  0  0
  2 32  1  0  0  0  0
  4 33  1  0  0  0  0
  8 34  1  0  0  0  0
  9 35  1  0  0  0  0
 12 36  1  0  0  0  0
 14 37  1  0  0  0  0
 15 38  1  0  0  0  0
 19 39  1  0  0  0  0
 19 40  1  0  0  0  0
 19 41  1  0  0  0  0
 23 42  1  0  0  0  0
 24 43  1  0  0  0  0
 25 44  1  0  0  0  0
 29 45  1  0  0  0  0
M  END
> <ID>
65

> <IC50[uM]>
0.111

$$$$
65
  -OEChem-05192314313D
 Structure written by MMmdl.
 45 49  0     0  0  0  0  0  0999 V2000
   93.2872   49.7956  267.6944 C   0  0  0  0  0  0  0  0  0  0  0  0
   92.5687   47.3376  266.4857 C   0  0  0  0  0  0  0  0  0  0  0  0
   91.6146   48.3304  266.6749 C   0  0  0  0  0  0  0  0  0  0  0  0
   91.9729   49.5341  267.2820 C   0  0  0  0  0  0  0  0  0  0  0  0
   93.8980   47.5350  266.9247 C   0  0  0  0  0  0  0  0  0  0  0  0
   94.2694   48.7811  267.5256 C   0  0  0  0  0  0  0  0  0  0  0  0
   95.5628   48.9608  267.9474 N   0  0  0  0  0  0  0  0  0  0  0  0
   96.4512   47.9559  267.7583 C   0  0  0  0  0  0  0  0  0  0  0  0
   96.0630   46.7394  267.2050 C   0  0  0  0  0  0  0  0  0  0  0  0
   94.7992   46.5230  266.7822 N   0  0  0  0  0  0  0  0  0  0  0  0
   89.7144   47.3441  265.2867 C   0  0  0  0  0  0  0  0  0  0  0  0
   90.4092   47.1460  264.0888 C   0  0  0  0  0  0  0  0  0  0  0  0
   89.9096   46.4507  263.0377 N   0  0  0  0  0  0  0  0  0  0  0  0
   88.6543   45.9413  263.1621 C   0  0  0  0  0  0  0  0  0  0  0  0
   87.8854   46.0879  264.3158 C   0  0  0  0  0  0  0  0  0  0  0  0
   88.4232   46.7977  265.3980 C   0  0  0  0  0  0  0  0  0  0  0  0
   87.4784   46.8853  266.9220 S   0  0  0  0  0  0  0  0  0  0  0  0
   86.1276   46.3963  266.6637 O   0  0  0  0  0  0  0  0  0  0  0  0
   88.3703   45.6287  268.0030 C   0  0  0  0  0  0  0  0  0  0  0  0
   87.6748   48.2291  267.4909 O   0  0  0  0  0  0  0  0  0  0  0  0
   90.2732   48.1194  266.3138 N   0  0  0  0  0  0  0  0  0  0  0  0
   93.5885   51.1029  268.3430 C   0  0  0  0  0  0  0  0  0  0  0  0
   94.5710   51.9460  267.8128 C   0  0  0  0  0  0  0  0  0  0  0  0
   94.8648   53.1857  268.4025 C   0  0  0  0  0  0  0  0  0  0  0  0
   92.8911   51.4690  269.4891 C   0  0  0  0  0  0  0  0  0  0  0  0
   93.1676   52.6956  270.0909 C   0  0  0  0  0  0  0  0  0  0  0  0
   94.1496   53.5503  269.5479 C   0  0  0  0  0  0  0  0  0  0  0  0
   94.2519   54.9826  270.5782 S   0  0  0  0  0  0  0  0  0  0  0  0
   93.0165   54.3044  271.5748 C   0  0  0  0  0  0  0  0  0  0  0  0
   92.5431   53.1496  271.2157 N   0  0  0  0  0  0  0  0  0  0  0  0
   92.2937   46.4122  266.0016 H   0  0  0  0  0  0  0  0  0  0  0  0
   91.3445   49.6250  268.1802 H   0  0  0  0  0  0  0  0  0  0  0  0
   91.7101   50.3291  266.5686 H   0  0  0  0  0  0  0  0  0  0  0  0
   97.4827   48.1019  268.0430 H   0  0  0  0  0  0  0  0  0  0  0  0
   96.7917   45.9478  267.1114 H   0  0  0  0  0  0  0  0  0  0  0  0
   91.3980   47.5703  263.9963 H   0  0  0  0  0  0  0  0  0  0  0  0
   88.2339   45.3982  262.3286 H   0  0  0  0  0  0  0  0  0  0  0  0
   86.8944   45.6627  264.3744 H   0  0  0  0  0  0  0  0  0  0  0  0
   87.8835   45.5807  268.9882 H   0  0  0  0  0  0  0  0  0  0  0  0
   88.3287   44.6389  267.5250 H   0  0  0  0  0  0  0  0  0  0  0  0
   89.4203   45.9320  268.1274 H   0  0  0  0  0  0  0  0  0  0  0  0
   95.1144   51.6369  266.9321 H   0  0  0  0  0  0  0  0  0  0  0  0
   95.6187   53.8368  267.9852 H   0  0  0  0  0  0  0  0  0  0  0  0
   92.1442   50.8109  269.9079 H   0  0  0  0  0  0  0  0  0  0  0  0
   92.6547   54.8157  272.4546 H   0  0  0  0  0  0  0  0  0  0  0  0
  1  4  1  0  0  0  0
  1  6  2  0  0  0  0
  1 22  1  0  0  0  0
  2  3  1  0  0  0  0
  2  5  2  0  0  0  0
  3  4  1  0  0  0  0
  3 21  2  3  0  0  0
  5  6  1  0  0  0  0
  5 10  1  0  0  0  0
  6  7  1  0  0  0  0
  7  8  2  0  0  0  0
  8  9  1  0  0  0  0
  9 10  2  0  0  0  0
 11 12  2  0  0  0  0
 11 16  1  0  0  0  0
 11 21  1  0  0  0  0
 12 13  1  0  0  0  0
 13 14  2  0  0  0  0
 14 15  1  0  0  0  0
 15 16  2  0  0  0  0
 16 17  1  0  0  0  0
 17 18  2  0  0  0  0
 17 19  1  0  0  0  0
 17 20  2  0  0  0  0
 22 23  2  0  0  0  0
 22 25  1  0  0  0  0
 23 24  1  0  0  0  0
 24 27  2  0  0  0  0
 25 26  2  0  0  0  0
 26 27  1  0  0  0  0
 26 30  1  0  0  0  0
 27 28  1  0  0  0  0
 28 29  1  0  0  0  0
 29 30  2  0  0  0  0
  2 31  1  0  0  0  0
  4 32  1  0  0  0  0
  4 33  1  0  0  0  0
  8 34  1  0  0  0  0
  9 35  1  0  0  0  0
 12 36  1  0  0  0  0
 14 37  1  0  0  0  0
 15 38  1  0  0  0  0
 19 39  1  0  0  0  0
 19 40  1  0  0  0  0
 19 41  1  0  0  0  0
 23 42  1  0  0  0  0
 24 43  1  0  0  0  0
 25 44  1  0  0  0  0
 29 45  1  0  0  0  0
M  END
> <ID>
65

> <IC50[uM]>
0.111

$$$$
65
  -OEChem-05192314313D
 Structure written by MMmdl.
 45 49  0     1  0  0  0  0  0999 V2000
   93.2872   49.7956  267.6944 C   0  0  0  0  0  0  0  0  0  0  0  0
   92.5687   47.3376  266.4857 C   0  0  0  0  0  0  0  0  0  0  0  0
   91.6146   48.3304  266.6749 C   0  0  0  0  0  0  0  0  0  0  0  0
   91.9729   49.5341  267.2820 C   0  0  0  0  0  0  0  0  0  0  0  0
   93.8980   47.5350  266.9247 C   0  0  0  0  0  0  0  0  0  0  0  0
   94.2694   48.7811  267.5256 C   0  0  0  0  0  0  0  0  0  0  0  0
   95.5628   48.9608  267.9474 N   0  0  0  0  0  0  0  0  0  0  0  0
   96.4512   47.9559  267.7583 C   0  0  0  0  0  0  0  0  0  0  0  0
   96.0630   46.7394  267.2050 C   0  0  0  0  0  0  0  0  0  0  0  0
   94.7992   46.5230  266.7822 N   0  0  0  0  0  0  0  0  0  0  0  0
   89.7144   47.3441  265.2867 C   0  0  0  0  0  0  0  0  0  0  0  0
   90.4092   47.1460  264.0888 C   0  0  0  0  0  0  0  0  0  0  0  0
   89.9096   46.4507  263.0377 N   0  0  0  0  0  0  0  0  0  0  0  0
   88.6543   45.9413  263.1621 C   0  0  0  0  0  0  0  0  0  0  0  0
   87.8854   46.0879  264.3158 C   0  0  0  0  0  0  0  0  0  0  0  0
   88.4232   46.7977  265.3980 C   0  0  3  0  0  0  0  0  0  0  0  0
   87.4784   46.8853  266.9220 S   0  0  0  0  0  0  0  0  0  0  0  0
   86.1276   46.3963  266.6637 O   0  0  0  0  0  0  0  0  0  0  0  0
   88.3703   45.6287  268.0030 C   0  0  0  0  0  0  0  0  0  0  0  0
   87.6748   48.2291  267.4909 O   0  0  0  0  0  0  0  0  0  0  0  0
   90.2732   48.1194  266.3138 N   0  0  0  0  0  0  0  0  0  0  0  0
   93.5885   51.1029  268.3430 C   0  0  0  0  0  0  0  0  0  0  0  0
   94.5710   51.9460  267.8128 C   0  0  0  0  0  0  0  0  0  0  0  0
   94.8648   53.1857  268.4025 C   0  0  0  0  0  0  0  0  0  0  0  0
   92.8911   51.4690  269.4891 C   0  0  0  0  0  0  0  0  0  0  0  0
   93.1676   52.6956  270.0909 C   0  0  0  0  0  0  0  0  0  0  0  0
   94.1496   53.5503  269.5479 C   0  0  0  0  0  0  0  0  0  0  0  0
   94.2519   54.9826  270.5782 S   0  0  0  0  0  0  0  0  0  0  0  0
   93.0165   54.3044  271.5748 C   0  0  0  0  0  0  0  0  0  0  0  0
   92.5431   53.1496  271.2157 N   0  0  0  0  0  0  0  0  0  0  0  0
   92.2937   46.4122  266.0016 H   0  0  0  0  0  0  0  0  0  0  0  0
   91.2150   50.2873  267.4391 H   0  0  0  0  0  0  0  0  0  0  0  0
   97.4827   48.1019  268.0430 H   0  0  0  0  0  0  0  0  0  0  0  0
   96.7917   45.9478  267.1114 H   0  0  0  0  0  0  0  0  0  0  0  0
   91.3980   47.5703  263.9963 H   0  0  0  0  0  0  0  0  0  0  0  0
   88.2339   45.3982  262.3286 H   0  0  0  0  0  0  0  0  0  0  0  0
   86.8944   45.6627  264.3744 H   0  0  0  0  0  0  0  0  0  0  0  0
   87.9698   47.7340  265.0407 H   0  0  0  0  0  0  0  0  0  0  0  0
   87.8835   45.5807  268.9882 H   0  0  0  0  0  0  0  0  0  0  0  0
   88.3287   44.6389  267.5250 H   0  0  0  0  0  0  0  0  0  0  0  0
   89.4203   45.9320  268.1274 H   0  0  0  0  0  0  0  0  0  0  0  0
   95.1144   51.6369  266.9321 H   0  0  0  0  0  0  0  0  0  0  0  0
   95.6187   53.8368  267.9852 H   0  0  0  0  0  0  0  0  0  0  0  0
   92.1442   50.8109  269.9079 H   0  0  0  0  0  0  0  0  0  0  0  0
   92.6547   54.8157  272.4546 H   0  0  0  0  0  0  0  0  0  0  0  0
  1  4  2  0  0  0  0
  1  6  1  0  0  0  0
  1 22  1  0  0  0  0
  2  3  2  0  0  0  0
  2  5  1  0  0  0  0
  3  4  1  0  0  0  0
  3 21  1  0  0  0  0
  5  6  2  0  0  0  0
  5 10  1  0  0  0  0
  6  7  1  0  0  0  0
  7  8  2  0  0  0  0
  8  9  1  0  0  0  0
  9 10  2  0  0  0  0
 11 12  1  0  0  0  0
 11 16  1  0  0  0  0
 11 21  2  3  0  0  0
 12 13  2  0  0  0  0
 13 14  1  0  0  0  0
 14 15  2  0  0  0  0
 15 16  1  0  0  0  0
 16 17  1  0  0  0  0
 17 18  2  0  0  0  0
 17 19  1  0  0  0  0
 17 20  2  0  0  0  0
 22 23  2  0  0  0  0
 22 25  1  0  0  0  0
 23 24  1  0  0  0  0
 24 27  2  0  0  0  0
 25 26  2  0  0  0  0
 26 27  1  0  0  0  0
 26 30  1  0  0  0  0
 27 28  1  0  0  0  0
 28 29  1  0  0  0  0
 29 30  2  0  0  0  0
  2 31  1  0  0  0  0
  4 32  1  0  0  0  0
  8 33  1  0  0  0  0
  9 34  1  0  0  0  0
 12 35  1  0  0  0  0
 14 36  1  0  0  0  0
 15 37  1  0  0  0  0
 16 38  1  0  0  0  0
 19 39  1  0  0  0  0
 19 40  1  0  0  0  0
 19 41  1  0  0  0  0
 23 42  1  0  0  0  0
 24 43  1  0  0  0  0
 25 44  1  0  0  0  0
 29 45  1  0  0  0  0
M  END
> <ID>
65

> <IC50[uM]>
0.111

$$$$
65
  -OEChem-05192314313D
 Structure written by MMmdl.
 45 49  0     0  0  0  0  0  0999 V2000
   93.2872   49.7956  267.6944 C   0  0  0  0  0  0  0  0  0  0  0  0
   92.5687   47.3376  266.4857 C   0  0  0  0  0  0  0  0  0  0  0  0
   91.6146   48.3304  266.6749 C   0  0  0  0  0  0  0  0  0  0  0  0
   91.9729   49.5341  267.2820 C   0  0  0  0  0  0  0  0  0  0  0  0
   93.8980   47.5350  266.9247 C   0  0  0  0  0  0  0  0  0  0  0  0
   94.2694   48.7811  267.5256 C   0  0  0  0  0  0  0  0  0  0  0  0
   95.5628   48.9608  267.9474 N   0  0  0  0  0  0  0  0  0  0  0  0
   96.4512   47.9559  267.7583 C   0  0  0  0  0  0  0  0  0  0  0  0
   96.0630   46.7394  267.2050 C   0  0  0  0  0  0  0  0  0  0  0  0
   94.7992   46.5230  266.7822 N   0  0  0  0  0  0  0  0  0  0  0  0
   89.7144   47.3441  265.2867 C   0  0  0  0  0  0  0  0  0  0  0  0
   90.4092   47.1460  264.0888 C   0  0  0  0  0  0  0  0  0  0  0  0
   89.9096   46.4507  263.0377 N   0  0  0  0  0  0  0  0  0  0  0  0
   88.6543   45.9413  263.1621 C   0  0  0  0  0  0  0  0  0  0  0  0
   87.8854   46.0879  264.3158 C   0  0  0  0  0  0  0  0  0  0  0  0
   88.4232   46.7977  265.3980 C   0  0  0  0  0  0  0  0  0  0  0  0
   87.4784   46.8853  266.9220 S   0  0  0  0  0  0  0  0  0  0  0  0
   86.1276   46.3963  266.6637 O   0  0  0  0  0  0  0  0  0  0  0  0
   88.3703   45.6287  268.0030 C   0  0  0  0  0  0  0  0  0  0  0  0
   87.6748   48.2291  267.4909 O   0  0  0  0  0  0  0  0  0  0  0  0
   90.2732   48.1194  266.3138 N   0  0  0  0  0  0  0  0  0  0  0  0
   93.5885   51.1029  268.3430 C   0  0  0  0  0  0  0  0  0  0  0  0
   94.5710   51.9460  267.8128 C   0  0  0  0  0  0  0  0  0  0  0  0
   94.8648   53.1857  268.4025 C   0  0  0  0  0  0  0  0  0  0  0  0
   92.8911   51.4690  269.4891 C   0  0  0  0  0  0  0  0  0  0  0  0
   93.1676   52.6956  270.0909 C   0  0  0  0  0  0  0  0  0  0  0  0
   94.1496   53.5503  269.5479 C   0  0  0  0  0  0  0  0  0  0  0  0
   94.2519   54.9826  270.5782 S   0  0  0  0  0  0  0  0  0  0  0  0
   93.0165   54.3044  271.5748 C   0  0  0  0  0  0  0  0  0  0  0  0
   92.5431   53.1496  271.2157 N   0  0  0  0  0  0  0  0  0  0  0  0
   92.2937   46.4122  266.0016 H   0  0  0  0  0  0  0  0  0  0  0  0
   91.2150   50.2873  267.4391 H   0  0  0  0  0  0  0  0  0  0  0  0
   97.4827   48.1019  268.0430 H   0  0  0  0  0  0  0  0  0  0  0  0
   96.7917   45.9478  267.1114 H   0  0  0  0  0  0  0  0  0  0  0  0
   91.3980   47.5703  263.9963 H   0  0  0  0  0  0  0  0  0  0  0  0
   88.0648   46.3860  262.3468 H   0  0  0  0  0  0  0  0  0  0  0  0
   88.7494   44.8579  262.9972 H   0  0  0  0  0  0  0  0  0  0  0  0
   86.8944   45.6627  264.3744 H   0  0  0  0  0  0  0  0  0  0  0  0
   87.8835   45.5807  268.9882 H   0  0  0  0  0  0  0  0  0  0  0  0
   88.3287   44.6389  267.5250 H   0  0  0  0  0  0  0  0  0  0  0  0
   89.4203   45.9320  268.1274 H   0  0  0  0  0  0  0  0  0  0  0  0
   95.1144   51.6369  266.9321 H   0  0  0  0  0  0  0  0  0  0  0  0
   95.6187   53.8368  267.9852 H   0  0  0  0  0  0  0  0  0  0  0  0
   92.1442   50.8109  269.9079 H   0  0  0  0  0  0  0  0  0  0  0  0
   92.6547   54.8157  272.4546 H   0  0  0  0  0  0  0  0  0  0  0  0
  1  4  2  0  0  0  0
  1  6  1  0  0  0  0
  1 22  1  0  0  0  0
  2  3  2  0  0  0  0
  2  5  1  0  0  0  0
  3  4  1  0  0  0  0
  3 21  1  0  0  0  0
  5  6  2  0  0  0  0
  5 10  1  0  0  0  0
  6  7  1  0  0  0  0
  7  8  2  0  0  0  0
  8  9  1  0  0  0  0
  9 10  2  0  0  0  0
 11 12  1  0  0  0  0
 11 16  1  0  0  0  0
 11 21  2  3  0  0  0
 12 13  2  0  0  0  0
 13 14  1  0  0  0  0
 14 15  1  0  0  0  0
 15 16  2  0  0  0  0
 16 17  1  0  0  0  0
 17 18  2  0  0  0  0
 17 19  1  0  0  0  0
 17 20  2  0  0  0  0
 22 23  2  0  0  0  0
 22 25  1  0  0  0  0
 23 24  1  0  0  0  0
 24 27  2  0  0  0  0
 25 26  2  0  0  0  0
 26 27  1  0  0  0  0
 26 30  1  0  0  0  0
 27 28  1  0  0  0  0
 28 29  1  0  0  0  0
 29 30  2  0  0  0  0
  2 31  1  0  0  0  0
  4 32  1  0  0  0  0
  8 33  1  0  0  0  0
  9 34  1  0  0  0  0
 12 35  1  0  0  0  0
 14 36  1  0  0  0  0
 14 37  1  0  0  0  0
 15 38  1  0  0  0  0
 19 39  1  0  0  0  0
 19 40  1  0  0  0  0
 19 41  1  0  0  0  0
 23 42  1  0  0  0  0
 24 43  1  0  0  0  0
 25 44  1  0  0  0  0
 29 45  1  0  0  0  0
M  END
> <ID>
65

> <IC50[uM]>
0.111

$$$$
65
  -OEChem-05192314313D
 Structure written by MMmdl.
 45 49  0     0  0  0  0  0  0999 V2000
   93.2872   49.7956  267.6944 C   0  0  0  0  0  0  0  0  0  0  0  0
   92.5687   47.3376  266.4857 C   0  0  0  0  0  0  0  0  0  0  0  0
   91.6146   48.3304  266.6749 C   0  0  0  0  0  0  0  0  0  0  0  0
   91.9729   49.5341  267.2820 C   0  0  0  0  0  0  0  0  0  0  0  0
   93.8980   47.5350  266.9247 C   0  0  0  0  0  0  0  0  0  0  0  0
   94.2694   48.7811  267.5256 C   0  0  0  0  0  0  0  0  0  0  0  0
   95.5628   48.9608  267.9474 N   0  0  0  0  0  0  0  0  0  0  0  0
   96.4512   47.9559  267.7583 C   0  0  0  0  0  0  0  0  0  0  0  0
   96.0630   46.7394  267.2050 C   0  0  0  0  0  0  0  0  0  0  0  0
   94.7992   46.5230  266.7822 N   0  0  0  0  0  0  0  0  0  0  0  0
   89.7144   47.3441  265.2867 C   0  0  0  0  0  0  0  0  0  0  0  0
   90.4092   47.1460  264.0888 C   0  0  0  0  0  0  0  0  0  0  0  0
   89.9096   46.4507  263.0377 N   0  0  0  0  0  0  0  0  0  0  0  0
   88.6543   45.9413  263.1621 C   0  0  0  0  0  0  0  0  0  0  0  0
   87.8854   46.0879  264.3158 C   0  0  0  0  0  0  0  0  0  0  0  0
   88.4232   46.7977  265.3980 C   0  0  0  0  0  0  0  0  0  0  0  0
   87.4784   46.8853  266.9220 S   0  0  0  0  0  0  0  0  0  0  0  0
   86.1276   46.3963  266.6637 O   0  0  0  0  0  0  0  0  0  0  0  0
   88.3703   45.6287  268.0030 C   0  0  0  0  0  0  0  0  0  0  0  0
   87.6748   48.2291  267.4909 O   0  0  0  0  0  0  0  0  0  0  0  0
   90.2732   48.1194  266.3138 N   0  0  0  0  0  0  0  0  0  0  0  0
   93.5885   51.1029  268.3430 C   0  0  0  0  0  0  0  0  0  0  0  0
   94.5710   51.9460  267.8128 C   0  0  0  0  0  0  0  0  0  0  0  0
   94.8648   53.1857  268.4025 C   0  0  0  0  0  0  0  0  0  0  0  0
   92.8911   51.4690  269.4891 C   0  0  0  0  0  0  0  0  0  0  0  0
   93.1676   52.6956  270.0909 C   0  0  0  0  0  0  0  0  0  0  0  0
   94.1496   53.5503  269.5479 C   0  0  0  0  0  0  0  0  0  0  0  0
   94.2519   54.9826  270.5782 S   0  0  0  0  0  0  0  0  0  0  0  0
   93.0165   54.3044  271.5748 C   0  0  0  0  0  0  0  0  0  0  0  0
   92.5431   53.1496  271.2157 N   0  0  0  0  0  0  0  0  0  0  0  0
   92.2937   46.4122  266.0016 H   0  0  0  0  0  0  0  0  0  0  0  0
   91.2150   50.2873  267.4391 H   0  0  0  0  0  0  0  0  0  0  0  0
   97.4827   48.1019  268.0430 H   0  0  0  0  0  0  0  0  0  0  0  0
   96.7917   45.9478  267.1114 H   0  0  0  0  0  0  0  0  0  0  0  0
   90.6355   48.1511  263.7034 H   0  0  0  0  0  0  0  0  0  0  0  0
   91.3459   46.6399  264.3654 H   0  0  0  0  0  0  0  0  0  0  0  0
   88.2339   45.3982  262.3286 H   0  0  0  0  0  0  0  0  0  0  0  0
   86.8944   45.6627  264.3744 H   0  0  0  0  0  0  0  0  0  0  0  0
   87.8835   45.5807  268.9882 H   0  0  0  0  0  0  0  0  0  0  0  0
   88.3287   44.6389  267.5250 H   0  0  0  0  0  0  0  0  0  0  0  0
   89.4203   45.9320  268.1274 H   0  0  0  0  0  0  0  0  0  0  0  0
   95.1144   51.6369  266.9321 H   0  0  0  0  0  0  0  0  0  0  0  0
   95.6187   53.8368  267.9852 H   0  0  0  0  0  0  0  0  0  0  0  0
   92.1442   50.8109  269.9079 H   0  0  0  0  0  0  0  0  0  0  0  0
   92.6547   54.8157  272.4546 H   0  0  0  0  0  0  0  0  0  0  0  0
  1  4  2  0  0  0  0
  1  6  1  0  0  0  0
  1 22  1  0  0  0  0
  2  3  2  0  0  0  0
  2  5  1  0  0  0  0
  3  4  1  0  0  0  0
  3 21  1  0  0  0  0
  5  6  2  0  0  0  0
  5 10  1  0  0  0  0
  6  7  1  0  0  0  0
  7  8  2  0  0  0  0
  8  9  1  0  0  0  0
  9 10  2  0  0  0  0
 11 12  1  0  0  0  0
 11 16  1  0  0  0  0
 11 21  2  3  0  0  0
 12 13  1  0  0  0  0
 13 14  2  0  0  0  0
 14 15  1  0  0  0  0
 15 16  2  0  0  0  0
 16 17  1  0  0  0  0
 17 18  2  0  0  0  0
 17 19  1  0  0  0  0
 17 20  2  0  0  0  0
 22 23  2  0  0  0  0
 22 25  1  0  0  0  0
 23 24  1  0  0  0  0
 24 27  2  0  0  0  0
 25 26  2  0  0  0  0
 26 27  1  0  0  0  0
 26 30  1  0  0  0  0
 27 28  1  0  0  0  0
 28 29  1  0  0  0  0
 29 30  2  0  0  0  0
  2 31  1  0  0  0  0
  4 32  1  0  0  0  0
  8 33  1  0  0  0  0
  9 34  1  0  0  0  0
 12 35  1  0  0  0  0
 12 36  1  0  0  0  0
 14 37  1  0  0  0  0
 15 38  1  0  0  0  0
 19 39  1  0  0  0  0
 19 40  1  0  0  0  0
 19 41  1  0  0  0  0
 23 42  1  0  0  0  0
 24 43  1  0  0  0  0
 25 44  1  0  0  0  0
 29 45  1  0  0  0  0
M  END
> <ID>
65

> <IC50[uM]>
0.111

$$$$
65
  -OEChem-05192314313D
 Structure written by MMmdl.
 45 49  0     1  0  0  0  0  0999 V2000
   93.2872   49.7956  267.6944 C   0  0  0  0  0  0  0  0  0  0  0  0
   92.5687   47.3376  266.4857 C   0  0  0  0  0  0  0  0  0  0  0  0
   91.6146   48.3304  266.6749 C   0  0  0  0  0  0  0  0  0  0  0  0
   91.9729   49.5341  267.2820 C   0  0  0  0  0  0  0  0  0  0  0  0
   93.8980   47.5350  266.9247 C   0  0  0  0  0  0  0  0  0  0  0  0
   94.2694   48.7811  267.5256 C   0  0  3  0  0  0  0  0  0  0  0  0
   95.5628   48.9608  267.9474 N   0  0  0  0  0  0  0  0  0  0  0  0
   96.4512   47.9559  267.7583 C   0  0  0  0  0  0  0  0  0  0  0  0
   96.0630   46.7394  267.2050 C   0  0  0  0  0  0  0  0  0  0  0  0
   94.7992   46.5230  266.7822 N   0  0  0  0  0  0  0  0  0  0  0  0
   89.7144   47.3441  265.2867 C   0  0  0  0  0  0  0  0  0  0  0  0
   90.4092   47.1460  264.0888 C   0  0  0  0  0  0  0  0  0  0  0  0
   89.9096   46.4507  263.0377 N   0  0  0  0  0  0  0  0  0  0  0  0
   88.6543   45.9413  263.1621 C   0  0  0  0  0  0  0  0  0  0  0  0
   87.8854   46.0879  264.3158 C   0  0  0  0  0  0  0  0  0  0  0  0
   88.4232   46.7977  265.3980 C   0  0  0  0  0  0  0  0  0  0  0  0
   87.4784   46.8853  266.9220 S   0  0  0  0  0  0  0  0  0  0  0  0
   86.1276   46.3963  266.6637 O   0  0  0  0  0  0  0  0  0  0  0  0
   88.3703   45.6287  268.0030 C   0  0  0  0  0  0  0  0  0  0  0  0
   87.6748   48.2291  267.4909 O   0  0  0  0  0  0  0  0  0  0  0  0
   90.2732   48.1194  266.3138 N   0  0  0  0  0  0  0  0  0  0  0  0
   93.5885   51.1029  268.3430 C   0  0  0  0  0  0  0  0  0  0  0  0
   94.5710   51.9460  267.8128 C   0  0  0  0  0  0  0  0  0  0  0  0
   94.8648   53.1857  268.4025 C   0  0  0  0  0  0  0  0  0  0  0  0
   92.8911   51.4690  269.4891 C   0  0  0  0  0  0  0  0  0  0  0  0
   93.1676   52.6956  270.0909 C   0  0  0  0  0  0  0  0  0  0  0  0
   94.1496   53.5503  269.5479 C   0  0  0  0  0  0  0  0  0  0  0  0
   94.2519   54.9826  270.5782 S   0  0  0  0  0  0  0  0  0  0  0  0
   93.0165   54.3044  271.5748 C   0  0  0  0  0  0  0  0  0  0  0  0
   92.5431   53.1496  271.2157 N   0  0  0  0  0  0  0  0  0  0  0  0
   92.2937   46.4122  266.0016 H   0  0  0  0  0  0  0  0  0  0  0  0
   91.2150   50.2873  267.4391 H   0  0  0  0  0  0  0  0  0  0  0  0
   94.5285   49.1877  266.5369 H   0  0  0  0  0  0  0  0  0  0  0  0
   97.4827   48.1019  268.0430 H   0  0  0  0  0  0  0  0  0  0  0  0
   96.7917   45.9478  267.1114 H   0  0  0  0  0  0  0  0  0  0  0  0
   91.3980   47.5703  263.9963 H   0  0  0  0  0  0  0  0  0  0  0  0
   88.2339   45.3982  262.3286 H   0  0  0  0  0  0  0  0  0  0  0  0
   86.8944   45.6627  264.3744 H   0  0  0  0  0  0  0  0  0  0  0  0
   87.8835   45.5807  268.9882 H   0  0  0  0  0  0  0  0  0  0  0  0
   88.3287   44.6389  267.5250 H   0  0  0  0  0  0  0  0  0  0  0  0
   89.4203   45.9320  268.1274 H   0  0  0  0  0  0  0  0  0  0  0  0
   95.1144   51.6369  266.9321 H   0  0  0  0  0  0  0  0  0  0  0  0
   95.6187   53.8368  267.9852 H   0  0  0  0  0  0  0  0  0  0  0  0
   92.1442   50.8109  269.9079 H   0  0  0  0  0  0  0  0  0  0  0  0
   92.6547   54.8157  272.4546 H   0  0  0  0  0  0  0  0  0  0  0  0
  1  4  2  0  0  0  0
  1  6  1  0  0  0  0
  1 22  1  0  0  0  0
  2  3  1  0  0  0  0
  2  5  2  0  0  0  0
  3  4  1  0  0  0  0
  3 21  2  3  0  0  0
  5  6  1  0  0  0  0
  5 10  1  0  0  0  0
  6  7  1  0  0  0  0
  7  8  2  0  0  0  0
  8  9  1  0  0  0  0
  9 10  2  0  0  0  0
 11 12  2  0  0  0  0
 11 16  1  0  0  0  0
 11 21  1  0  0  0  0
 12 13  1  0  0  0  0
 13 14  2  0  0  0  0
 14 15  1  0  0  0  0
 15 16  2  0  0  0  0
 16 17  1  0  0  0  0
 17 18  2  0  0  0  0
 17 19  1  0  0  0  0
 17 20  2  0  0  0  0
 22 23  2  0  0  0  0
 22 25  1  0  0  0  0
 23 24  1  0  0  0  0
 24 27  2  0  0  0  0
 25 26  2  0  0  0  0
 26 27  1  0  0  0  0
 26 30  1  0  0  0  0
 27 28  1  0  0  0  0
 28 29  1  0  0  0  0
 29 30  2  0  0  0  0
  2 31  1  0  0  0  0
  4 32  1  0  0  0  0
  6 33  1  0  0  0  0
  8 34  1  0  0  0  0
  9 35  1  0  0  0  0
 12 36  1  0  0  0  0
 14 37  1  0  0  0  0
 15 38  1  0  0  0  0
 19 39  1  0  0  0  0
 19 40  1  0  0  0  0
 19 41  1  0  0  0  0
 23 42  1  0  0  0  0
 24 43  1  0  0  0  0
 25 44  1  0  0  0  0
 29 45  1  0  0  0  0
M  END
> <ID>
65

> <IC50[uM]>
0.111

$$$$
65
  -OEChem-05192314313D
 Structure written by MMmdl.
 45 49  0     0  0  0  0  0  0999 V2000
   93.2872   49.7956  267.6944 C   0  0  0  0  0  0  0  0  0  0  0  0
   92.5687   47.3376  266.4857 C   0  0  0  0  0  0  0  0  0  0  0  0
   91.6146   48.3304  266.6749 C   0  0  0  0  0  0  0  0  0  0  0  0
   91.9729   49.5341  267.2820 C   0  0  0  0  0  0  0  0  0  0  0  0
   93.8980   47.5350  266.9247 C   0  0  0  0  0  0  0  0  0  0  0  0
   94.2694   48.7811  267.5256 C   0  0  0  0  0  0  0  0  0  0  0  0
   95.5628   48.9608  267.9474 N   0  0  0  0  0  0  0  0  0  0  0  0
   96.4512   47.9559  267.7583 C   0  0  0  0  0  0  0  0  0  0  0  0
   96.0630   46.7394  267.2050 C   0  0  0  0  0  0  0  0  0  0  0  0
   94.7992   46.5230  266.7822 N   0  0  0  0  0  0  0  0  0  0  0  0
   89.7144   47.3441  265.2867 C   0  0  0  0  0  0  0  0  0  0  0  0
   90.4092   47.1460  264.0888 C   0  0  0  0  0  0  0  0  0  0  0  0
   89.9096   46.4507  263.0377 N   0  0  0  0  0  0  0  0  0  0  0  0
   88.6543   45.9413  263.1621 C   0  0  0  0  0  0  0  0  0  0  0  0
   87.8854   46.0879  264.3158 C   0  0  0  0  0  0  0  0  0  0  0  0
   88.4232   46.7977  265.3980 C   0  0  0  0  0  0  0  0  0  0  0  0
   87.4784   46.8853  266.9220 S   0  0  0  0  0  0  0  0  0  0  0  0
   86.1276   46.3963  266.6637 O   0  0  0  0  0  0  0  0  0  0  0  0
   88.3703   45.6287  268.0030 C   0  0  0  0  0  0  0  0  0  0  0  0
   87.6748   48.2291  267.4909 O   0  0  0  0  0  0  0  0  0  0  0  0
   90.2732   48.1194  266.3138 N   0  0  0  0  0  0  0  0  0  0  0  0
   93.5885   51.1029  268.3430 C   0  0  0  0  0  0  0  0  0  0  0  0
   94.5710   51.9460  267.8128 C   0  0  0  0  0  0  0  0  0  0  0  0
   94.8648   53.1857  268.4025 C   0  0  0  0  0  0  0  0  0  0  0  0
   92.8911   51.4690  269.4891 C   0  0  0  0  0  0  0  0  0  0  0  0
   93.1676   52.6956  270.0909 C   0  0  0  0  0  0  0  0  0  0  0  0
   94.1496   53.5503  269.5479 C   0  0  0  0  0  0  0  0  0  0  0  0
   94.2519   54.9826  270.5782 S   0  0  0  0  0  0  0  0  0  0  0  0
   93.0165   54.3044  271.5748 C   0  0  0  0  0  0  0  0  0  0  0  0
   92.5431   53.1496  271.2157 N   0  0  0  0  0  0  0  0  0  0  0  0
   92.2937   46.4122  266.0016 H   0  0  0  0  0  0  0  0  0  0  0  0
   91.2150   50.2873  267.4391 H   0  0  0  0  0  0  0  0  0  0  0  0
   97.2398   48.3571  267.1047 H   0  0  0  0  0  0  0  0  0  0  0  0
   96.8758   47.7264  268.7467 H   0  0  0  0  0  0  0  0  0  0  0  0
   96.7917   45.9478  267.1114 H   0  0  0  0  0  0  0  0  0  0  0  0
   91.3980   47.5703  263.9963 H   0  0  0  0  0  0  0  0  0  0  0  0
   88.2339   45.3982  262.3286 H   0  0  0  0  0  0  0  0  0  0  0  0
   86.8944   45.6627  264.3744 H   0  0  0  0  0  0  0  0  0  0  0  0
   87.8835   45.5807  268.9882 H   0  0  0  0  0  0  0  0  0  0  0  0
   88.3287   44.6389  267.5250 H   0  0  0  0  0  0  0  0  0  0  0  0
   89.4203   45.9320  268.1274 H   0  0  0  0  0  0  0  0  0  0  0  0
   95.1144   51.6369  266.9321 H   0  0  0  0  0  0  0  0  0  0  0  0
   95.6187   53.8368  267.9852 H   0  0  0  0  0  0  0  0  0  0  0  0
   92.1442   50.8109  269.9079 H   0  0  0  0  0  0  0  0  0  0  0  0
   92.6547   54.8157  272.4546 H   0  0  0  0  0  0  0  0  0  0  0  0
  1  4  2  0  0  0  0
  1  6  1  0  0  0  0
  1 22  1  0  0  0  0
  2  3  1  0  0  0  0
  2  5  2  0  0  0  0
  3  4  1  0  0  0  0
  3 21  2  3  0  0  0
  5  6  1  0  0  0  0
  5 10  1  0  0  0  0
  6  7  2  0  0  0  0
  7  8  1  0  0  0  0
  8  9  1  0  0  0  0
  9 10  2  0  0  0  0
 11 12  2  0  0  0  0
 11 16  1  0  0  0  0
 11 21  1  0  0  0  0
 12 13  1  0  0  0  0
 13 14  2  0  0  0  0
 14 15  1  0  0  0  0
 15 16  2  0  0  0  0
 16 17  1  0  0  0  0
 17 18  2  0  0  0  0
 17 19  1  0  0  0  0
 17 20  2  0  0  0  0
 22 23  2  0  0  0  0
 22 25  1  0  0  0  0
 23 24  1  0  0  0  0
 24 27  2  0  0  0  0
 25 26  2  0  0  0  0
 26 27  1  0  0  0  0
 26 30  1  0  0  0  0
 27 28  1  0  0  0  0
 28 29  1  0  0  0  0
 29 30  2  0  0  0  0
  2 31  1  0  0  0  0
  4 32  1  0  0  0  0
  8 33  1  0  0  0  0
  8 34  1  0  0  0  0
  9 35  1  0  0  0  0
 12 36  1  0  0  0  0
 14 37  1  0  0  0  0
 15 38  1  0  0  0  0
 19 39  1  0  0  0  0
 19 40  1  0  0  0  0
 19 41  1  0  0  0  0
 23 42  1  0  0  0  0
 24 43  1  0  0  0  0
 25 44  1  0  0  0  0
 29 45  1  0  0  0  0
M  END
> <ID>
65

> <IC50[uM]>
0.111

$$$$
