41
  -OEChem-05192314313D
 Structure written by MMmdl.
 47 50  0     0  0  0  0  0  0999 V2000
   93.2782   49.7896  267.6853 C   0  0  0  0  0  0  0  0  0  0  0  0
   92.5645   47.3279  266.4843 C   0  0  0  0  0  0  0  0  0  0  0  0
   91.6114   48.3242  266.6766 C   0  0  0  0  0  0  0  0  0  0  0  0
   91.9687   49.5189  267.2814 C   0  0  0  0  0  0  0  0  0  0  0  0
   93.8940   47.5285  266.9239 C   0  0  0  0  0  0  0  0  0  0  0  0
   94.2716   48.7689  267.5195 C   0  0  0  0  0  0  0  0  0  0  0  0
   95.5595   48.9594  267.9444 N   0  0  0  0  0  0  0  0  0  0  0  0
   96.4507   47.9529  267.7597 C   0  0  0  0  0  0  0  0  0  0  0  0
   96.0667   46.7376  267.2079 C   0  0  0  0  0  0  0  0  0  0  0  0
   94.7985   46.5177  266.7833 N   0  0  0  0  0  0  0  0  0  0  0  0
   93.5961   51.0950  268.3176 C   0  0  0  0  0  0  0  0  0  0  0  0
   92.8354   51.5850  269.3805 C   0  0  0  0  0  0  0  0  0  0  0  0
   93.1459   52.8020  269.9772 C   0  0  0  0  0  0  0  0  0  0  0  0
   94.2185   53.5485  269.5127 C   0  0  0  0  0  0  0  0  0  0  0  0
   94.9646   53.1033  268.4055 C   0  0  0  0  0  0  0  0  0  0  0  0
   94.6620   51.8657  267.8407 C   0  0  0  0  0  0  0  0  0  0  0  0
   90.2696   48.1131  266.3141 N   0  0  0  0  0  0  0  0  0  0  0  0
   89.7134   47.3365  265.2841 C   0  0  0  0  0  0  0  0  0  0  0  0
   90.4132   47.1201  264.0930 C   0  0  0  0  0  0  0  0  0  0  0  0
   89.9020   46.4455  263.0351 N   0  0  0  0  0  0  0  0  0  0  0  0
   88.6551   45.9413  263.1596 C   0  0  0  0  0  0  0  0  0  0  0  0
   87.8824   46.0848  264.3154 C   0  0  0  0  0  0  0  0  0  0  0  0
   88.4203   46.7966  265.3977 C   0  0  0  0  0  0  0  0  0  0  0  0
   87.4762   46.8845  266.9224 S   0  0  0  0  0  0  0  0  0  0  0  0
   86.1286   46.4001  266.6639 O   0  0  0  0  0  0  0  0  0  0  0  0
   87.6817   48.2276  267.4906 O   0  0  0  0  0  0  0  0  0  0  0  0
   88.3690   45.6249  268.0119 C   0  0  0  0  0  0  0  0  0  0  0  0
   95.9690   53.8069  267.7995 O   0  0  0  0  0  0  0  0  0  0  0  0
   96.3470   55.0729  268.3310 C   0  0  0  0  0  0  0  0  0  0  0  0
   97.3096   55.5398  267.5396 F   0  0  0  0  0  0  0  0  0  0  0  0
   95.3611   55.9453  268.3259 F   0  0  0  0  0  0  0  0  0  0  0  0
   96.7836   54.9621  269.5556 F   0  0  0  0  0  0  0  0  0  0  0  0
   92.2891   46.4027  266.0000 H   0  0  0  0  0  0  0  0  0  0  0  0
   91.2076   50.2672  267.4463 H   0  0  0  0  0  0  0  0  0  0  0  0
   97.4810   48.1001  268.0481 H   0  0  0  0  0  0  0  0  0  0  0  0
   96.7973   45.9477  267.1147 H   0  0  0  0  0  0  0  0  0  0  0  0
   91.9953   51.0118  269.7439 H   0  0  0  0  0  0  0  0  0  0  0  0
   92.5518   53.1659  270.8024 H   0  0  0  0  0  0  0  0  0  0  0  0
   94.4821   54.4744  270.0022 H   0  0  0  0  0  0  0  0  0  0  0  0
   95.2602   51.4954  267.0213 H   0  0  0  0  0  0  0  0  0  0  0  0
   89.6021   48.5944  266.8822 H   0  0  0  0  0  0  0  0  0  0  0  0
   91.4162   47.5122  264.0119 H   0  0  0  0  0  0  0  0  0  0  0  0
   88.2344   45.4005  262.3248 H   0  0  0  0  0  0  0  0  0  0  0  0
   86.8925   45.6569  264.3739 H   0  0  0  0  0  0  0  0  0  0  0  0
   87.8805   45.5794  268.9965 H   0  0  0  0  0  0  0  0  0  0  0  0
   88.3275   44.6340  267.5360 H   0  0  0  0  0  0  0  0  0  0  0  0
   89.4190   45.9278  268.1373 H   0  0  0  0  0  0  0  0  0  0  0  0
  1  4  2  0  0  0  0
  1  6  1  0  0  0  0
  1 11  1  0  0  0  0
  2  3  2  0  0  0  0
  2  5  1  0  0  0  0
  3  4  1  0  0  0  0
  3 17  1  0  0  0  0
  5  6  2  0  0  0  0
  5 10  1  0  0  0  0
  6  7  1  0  0  0  0
  7  8  2  0  0  0  0
  8  9  1  0  0  0  0
  9 10  2  0  0  0  0
 11 12  2  0  0  0  0
 11 16  1  0  0  0  0
 12 13  1  0  0  0  0
 13 14  2  0  0  0  0
 14 15  1  0  0  0  0
 15 16  2  0  0  0  0
 15 28  1  0  0  0  0
 17 18  1  0  0  0  0
 18 19  2  0  0  0  0
 18 23  1  0  0  0  0
 19 20  1  0  0  0  0
 20 21  2  0  0  0  0
 21 22  1  0  0  0  0
 22 23  2  0  0  0  0
 23 24  1  0  0  0  0
 24 25  2  0  0  0  0
 24 26  2  0  0  0  0
 24 27  1  0  0  0  0
 28 29  1  0  0  0  0
 29 30  1  0  0  0  0
 29 31  1  0  0  0  0
 29 32  1  0  0  0  0
  2 33  1  0  0  0  0
  4 34  1  0  0  0  0
  8 35  1  0  0  0  0
  9 36  1  0  0  0  0
 12 37  1  0  0  0  0
 13 38  1  0  0  0  0
 14 39  1  0  0  0  0
 16 40  1  0  0  0  0
 17 41  1  0  0  0  0
 19 42  1  0  0  0  0
 21 43  1  0  0  0  0
 22 44  1  0  0  0  0
 27 45  1  0  0  0  0
 27 46  1  0  0  0  0
 27 47  1  0  0  0  0
M  END
> <ID>
41

> <IC50[uM]>
3.844

$$$$
41
  -OEChem-05192314313D
 Structure written by MMmdl.
 47 50  0     0  0  0  0  0  0999 V2000
   93.2782   49.7896  267.6853 C   0  0  0  0  0  0  0  0  0  0  0  0
   92.5645   47.3279  266.4843 C   0  0  0  0  0  0  0  0  0  0  0  0
   91.6114   48.3242  266.6766 C   0  0  0  0  0  0  0  0  0  0  0  0
   91.9687   49.5189  267.2814 C   0  0  0  0  0  0  0  0  0  0  0  0
   93.8940   47.5285  266.9239 C   0  0  0  0  0  0  0  0  0  0  0  0
   94.2716   48.7689  267.5195 C   0  0  0  0  0  0  0  0  0  0  0  0
   95.5595   48.9594  267.9444 N   0  0  0  0  0  0  0  0  0  0  0  0
   96.4507   47.9529  267.7597 C   0  0  0  0  0  0  0  0  0  0  0  0
   96.0667   46.7376  267.2079 C   0  0  0  0  0  0  0  0  0  0  0  0
   94.7985   46.5177  266.7833 N   0  0  0  0  0  0  0  0  0  0  0  0
   93.5961   51.0950  268.3176 C   0  0  0  0  0  0  0  0  0  0  0  0
   92.8354   51.5850  269.3805 C   0  0  0  0  0  0  0  0  0  0  0  0
   93.1459   52.8020  269.9772 C   0  0  0  0  0  0  0  0  0  0  0  0
   94.2185   53.5485  269.5127 C   0  0  0  0  0  0  0  0  0  0  0  0
   94.9646   53.1033  268.4055 C   0  0  0  0  0  0  0  0  0  0  0  0
   94.6620   51.8657  267.8407 C   0  0  0  0  0  0  0  0  0  0  0  0
   90.2696   48.1131  266.3141 N   0  0  0  0  0  0  0  0  0  0  0  0
   89.7134   47.3365  265.2841 C   0  0  0  0  0  0  0  0  0  0  0  0
   90.4132   47.1201  264.0930 C   0  0  0  0  0  0  0  0  0  0  0  0
   89.9020   46.4455  263.0351 N   0  0  0  0  0  0  0  0  0  0  0  0
   88.6551   45.9413  263.1596 C   0  0  0  0  0  0  0  0  0  0  0  0
   87.8824   46.0848  264.3154 C   0  0  0  0  0  0  0  0  0  0  0  0
   88.4203   46.7966  265.3977 C   0  0  0  0  0  0  0  0  0  0  0  0
   87.4762   46.8845  266.9224 S   0  0  0  0  0  0  0  0  0  0  0  0
   86.1286   46.4001  266.6639 O   0  0  0  0  0  0  0  0  0  0  0  0
   87.6817   48.2276  267.4906 O   0  0  0  0  0  0  0  0  0  0  0  0
   88.3690   45.6249  268.0119 C   0  0  0  0  0  0  0  0  0  0  0  0
   95.9690   53.8069  267.7995 O   0  0  0  0  0  0  0  0  0  0  0  0
   96.3470   55.0729  268.3310 C   0  0  0  0  0  0  0  0  0  0  0  0
   97.3096   55.5398  267.5396 F   0  0  0  0  0  0  0  0  0  0  0  0
   95.3611   55.9453  268.3259 F   0  0  0  0  0  0  0  0  0  0  0  0
   96.7836   54.9621  269.5556 F   0  0  0  0  0  0  0  0  0  0  0  0
   92.2891   46.4027  266.0000 H   0  0  0  0  0  0  0  0  0  0  0  0
   91.2076   50.2672  267.4463 H   0  0  0  0  0  0  0  0  0  0  0  0
   97.4810   48.1001  268.0481 H   0  0  0  0  0  0  0  0  0  0  0  0
   96.7973   45.9477  267.1147 H   0  0  0  0  0  0  0  0  0  0  0  0
   94.5344   45.6418  266.3796 H   0  0  0  0  0  0  0  0  0  0  0  0
   91.9953   51.0118  269.7439 H   0  0  0  0  0  0  0  0  0  0  0  0
   92.5518   53.1659  270.8024 H   0  0  0  0  0  0  0  0  0  0  0  0
   94.4821   54.4744  270.0022 H   0  0  0  0  0  0  0  0  0  0  0  0
   95.2602   51.4954  267.0213 H   0  0  0  0  0  0  0  0  0  0  0  0
   91.4162   47.5122  264.0119 H   0  0  0  0  0  0  0  0  0  0  0  0
   88.2344   45.4005  262.3248 H   0  0  0  0  0  0  0  0  0  0  0  0
   86.8925   45.6569  264.3739 H   0  0  0  0  0  0  0  0  0  0  0  0
   87.8805   45.5794  268.9965 H   0  0  0  0  0  0  0  0  0  0  0  0
   88.3275   44.6340  267.5360 H   0  0  0  0  0  0  0  0  0  0  0  0
   89.4190   45.9278  268.1373 H   0  0  0  0  0  0  0  0  0  0  0  0
  1  4  2  0  0  0  0
  1  6  1  0  0  0  0
  1 11  1  0  0  0  0
  2  3  1  0  0  0  0
  2  5  2  0  0  0  0
  3  4  1  0  0  0  0
  3 17  2  3  0  0  0
  5  6  1  0  0  0  0
  5 10  1  0  0  0  0
  6  7  2  0  0  0  0
  7  8  1  0  0  0  0
  8  9  2  0  0  0  0
  9 10  1  0  0  0  0
 11 12  2  0  0  0  0
 11 16  1  0  0  0  0
 12 13  1  0  0  0  0
 13 14  2  0  0  0  0
 14 15  1  0  0  0  0
 15 16  2  0  0  0  0
 15 28  1  0  0  0  0
 17 18  1  0  0  0  0
 18 19  2  0  0  0  0
 18 23  1  0  0  0  0
 19 20  1  0  0  0  0
 20 21  2  0  0  0  0
 21 22  1  0  0  0  0
 22 23  2  0  0  0  0
 23 24  1  0  0  0  0
 24 25  2  0  0  0  0
 24 26  2  0  0  0  0
 24 27  1  0  0  0  0
 28 29  1  0  0  0  0
 29 30  1  0  0  0  0
 29 31  1  0  0  0  0
 29 32  1  0  0  0  0
  2 33  1  0  0  0  0
  4 34  1  0  0  0  0
  8 35  1  0  0  0  0
  9 36  1  0  0  0  0
 10 37  1  0  0  0  0
 12 38  1  0  0  0  0
 13 39  1  0  0  0  0
 14 40  1  0  0  0  0
 16 41  1  0  0  0  0
 19 42  1  0  0  0  0
 21 43  1  0  0  0  0
 22 44  1  0  0  0  0
 27 45  1  0  0  0  0
 27 46  1  0  0  0  0
 27 47  1  0  0  0  0
M  END
> <ID>
41

> <IC50[uM]>
3.844

$$$$
41
  -OEChem-05192314313D
 Structure written by MMmdl.
 47 50  0     0  0  0  0  0  0999 V2000
   93.2782   49.7896  267.6853 C   0  0  0  0  0  0  0  0  0  0  0  0
   92.5645   47.3279  266.4843 C   0  0  0  0  0  0  0  0  0  0  0  0
   91.6114   48.3242  266.6766 C   0  0  0  0  0  0  0  0  0  0  0  0
   91.9687   49.5189  267.2814 C   0  0  0  0  0  0  0  0  0  0  0  0
   93.8940   47.5285  266.9239 C   0  0  0  0  0  0  0  0  0  0  0  0
   94.2716   48.7689  267.5195 C   0  0  0  0  0  0  0  0  0  0  0  0
   95.5595   48.9594  267.9444 N   0  0  0  0  0  0  0  0  0  0  0  0
   96.4507   47.9529  267.7597 C   0  0  0  0  0  0  0  0  0  0  0  0
   96.0667   46.7376  267.2079 C   0  0  0  0  0  0  0  0  0  0  0  0
   94.7985   46.5177  266.7833 N   0  0  0  0  0  0  0  0  0  0  0  0
   93.5961   51.0950  268.3176 C   0  0  0  0  0  0  0  0  0  0  0  0
   92.8354   51.5850  269.3805 C   0  0  0  0  0  0  0  0  0  0  0  0
   93.1459   52.8020  269.9772 C   0  0  0  0  0  0  0  0  0  0  0  0
   94.2185   53.5485  269.5127 C   0  0  0  0  0  0  0  0  0  0  0  0
   94.9646   53.1033  268.4055 C   0  0  0  0  0  0  0  0  0  0  0  0
   94.6620   51.8657  267.8407 C   0  0  0  0  0  0  0  0  0  0  0  0
   90.2696   48.1131  266.3141 N   0  0  0  0  0  0  0  0  0  0  0  0
   89.7134   47.3365  265.2841 C   0  0  0  0  0  0  0  0  0  0  0  0
   90.4132   47.1201  264.0930 C   0  0  0  0  0  0  0  0  0  0  0  0
   89.9020   46.4455  263.0351 N   0  0  0  0  0  0  0  0  0  0  0  0
   88.6551   45.9413  263.1596 C   0  0  0  0  0  0  0  0  0  0  0  0
   87.8824   46.0848  264.3154 C   0  0  0  0  0  0  0  0  0  0  0  0
   88.4203   46.7966  265.3977 C   0  0  0  0  0  0  0  0  0  0  0  0
   87.4762   46.8845  266.9224 S   0  0  0  0  0  0  0  0  0  0  0  0
   86.1286   46.4001  266.6639 O   0  0  0  0  0  0  0  0  0  0  0  0
   87.6817   48.2276  267.4906 O   0  0  0  0  0  0  0  0  0  0  0  0
   88.3690   45.6249  268.0119 C   0  0  0  0  0  0  0  0  0  0  0  0
   95.9690   53.8069  267.7995 O   0  0  0  0  0  0  0  0  0  0  0  0
   96.3470   55.0729  268.3310 C   0  0  0  0  0  0  0  0  0  0  0  0
   97.3096   55.5398  267.5396 F   0  0  0  0  0  0  0  0  0  0  0  0
   95.3611   55.9453  268.3259 F   0  0  0  0  0  0  0  0  0  0  0  0
   96.7836   54.9621  269.5556 F   0  0  0  0  0  0  0  0  0  0  0  0
   92.1924   46.4288  266.9973 H   0  0  0  0  0  0  0  0  0  0  0  0
   92.6128   47.1389  265.4018 H   0  0  0  0  0  0  0  0  0  0  0  0
   91.2076   50.2672  267.4463 H   0  0  0  0  0  0  0  0  0  0  0  0
   97.4810   48.1001  268.0481 H   0  0  0  0  0  0  0  0  0  0  0  0
   96.7973   45.9477  267.1147 H   0  0  0  0  0  0  0  0  0  0  0  0
   91.9953   51.0118  269.7439 H   0  0  0  0  0  0  0  0  0  0  0  0
   92.5518   53.1659  270.8024 H   0  0  0  0  0  0  0  0  0  0  0  0
   94.4821   54.4744  270.0022 H   0  0  0  0  0  0  0  0  0  0  0  0
   95.2602   51.4954  267.0213 H   0  0  0  0  0  0  0  0  0  0  0  0
   91.4162   47.5122  264.0119 H   0  0  0  0  0  0  0  0  0  0  0  0
   88.2344   45.4005  262.3248 H   0  0  0  0  0  0  0  0  0  0  0  0
   86.8925   45.6569  264.3739 H   0  0  0  0  0  0  0  0  0  0  0  0
   87.8805   45.5794  268.9965 H   0  0  0  0  0  0  0  0  0  0  0  0
   88.3275   44.6340  267.5360 H   0  0  0  0  0  0  0  0  0  0  0  0
   89.4190   45.9278  268.1373 H   0  0  0  0  0  0  0  0  0  0  0  0
  1  4  2  0  0  0  0
  1  6  1  0  0  0  0
  1 11  1  0  0  0  0
  2  3  1  0  0  0  0
  2  5  1  0  0  0  0
  3  4  1  0  0  0  0
  3 17  2  3  0  0  0
  5  6  2  0  0  0  0
  5 10  1  0  0  0  0
  6  7  1  0  0  0  0
  7  8  2  0  0  0  0
  8  9  1  0  0  0  0
  9 10  2  0  0  0  0
 11 12  2  0  0  0  0
 11 16  1  0  0  0  0
 12 13  1  0  0  0  0
 13 14  2  0  0  0  0
 14 15  1  0  0  0  0
 15 16  2  0  0  0  0
 15 28  1  0  0  0  0
 17 18  1  0  0  0  0
 18 19  2  0  0  0  0
 18 23  1  0  0  0  0
 19 20  1  0  0  0  0
 20 21  2  0  0  0  0
 21 22  1  0  0  0  0
 22 23  2  0  0  0  0
 23 24  1  0  0  0  0
 24 25  2  0  0  0  0
 24 26  2  0  0  0  0
 24 27  1  0  0  0  0
 28 29  1  0  0  0  0
 29 30  1  0  0  0  0
 29 31  1  0  0  0  0
 29 32  1  0  0  0  0
  2 33  1  0  0  0  0
  2 34  1  0  0  0  0
  4 35  1  0  0  0  0
  8 36  1  0  0  0  0
  9 37  1  0  0  0  0
 12 38  1  0  0  0  0
 13 39  1  0  0  0  0
 14 40  1  0  0  0  0
 16 41  1  0  0  0  0
 19 42  1  0  0  0  0
 21 43  1  0  0  0  0
 22 44  1  0  0  0  0
 27 45  1  0  0  0  0
 27 46  1  0  0  0  0
 27 47  1  0  0  0  0
M  END
> <ID>
41

> <IC50[uM]>
3.844

$$$$
41
  -OEChem-05192314313D
 Structure written by MMmdl.
 47 50  0     0  0  0  0  0  0999 V2000
   93.2782   49.7896  267.6853 C   0  0  0  0  0  0  0  0  0  0  0  0
   92.5645   47.3279  266.4843 C   0  0  0  0  0  0  0  0  0  0  0  0
   91.6114   48.3242  266.6766 C   0  0  0  0  0  0  0  0  0  0  0  0
   91.9687   49.5189  267.2814 C   0  0  0  0  0  0  0  0  0  0  0  0
   93.8940   47.5285  266.9239 C   0  0  0  0  0  0  0  0  0  0  0  0
   94.2716   48.7689  267.5195 C   0  0  0  0  0  0  0  0  0  0  0  0
   95.5595   48.9594  267.9444 N   0  0  0  0  0  0  0  0  0  0  0  0
   96.4507   47.9529  267.7597 C   0  0  0  0  0  0  0  0  0  0  0  0
   96.0667   46.7376  267.2079 C   0  0  0  0  0  0  0  0  0  0  0  0
   94.7985   46.5177  266.7833 N   0  0  0  0  0  0  0  0  0  0  0  0
   93.5961   51.0950  268.3176 C   0  0  0  0  0  0  0  0  0  0  0  0
   92.8354   51.5850  269.3805 C   0  0  0  0  0  0  0  0  0  0  0  0
   93.1459   52.8020  269.9772 C   0  0  0  0  0  0  0  0  0  0  0  0
   94.2185   53.5485  269.5127 C   0  0  0  0  0  0  0  0  0  0  0  0
   94.9646   53.1033  268.4055 C   0  0  0  0  0  0  0  0  0  0  0  0
   94.6620   51.8657  267.8407 C   0  0  0  0  0  0  0  0  0  0  0  0
   90.2696   48.1131  266.3141 N   0  0  0  0  0  0  0  0  0  0  0  0
   89.7134   47.3365  265.2841 C   0  0  0  0  0  0  0  0  0  0  0  0
   90.4132   47.1201  264.0930 C   0  0  0  0  0  0  0  0  0  0  0  0
   89.9020   46.4455  263.0351 N   0  0  0  0  0  0  0  0  0  0  0  0
   88.6551   45.9413  263.1596 C   0  0  0  0  0  0  0  0  0  0  0  0
   87.8824   46.0848  264.3154 C   0  0  0  0  0  0  0  0  0  0  0  0
   88.4203   46.7966  265.3977 C   0  0  0  0  0  0  0  0  0  0  0  0
   87.4762   46.8845  266.9224 S   0  0  0  0  0  0  0  0  0  0  0  0
   86.1286   46.4001  266.6639 O   0  0  0  0  0  0  0  0  0  0  0  0
   87.6817   48.2276  267.4906 O   0  0  0  0  0  0  0  0  0  0  0  0
   88.3690   45.6249  268.0119 C   0  0  0  0  0  0  0  0  0  0  0  0
   95.9690   53.8069  267.7995 O   0  0  0  0  0  0  0  0  0  0  0  0
   96.3470   55.0729  268.3310 C   0  0  0  0  0  0  0  0  0  0  0  0
   97.3096   55.5398  267.5396 F   0  0  0  0  0  0  0  0  0  0  0  0
   95.3611   55.9453  268.3259 F   0  0  0  0  0  0  0  0  0  0  0  0
   96.7836   54.9621  269.5556 F   0  0  0  0  0  0  0  0  0  0  0  0
   92.2891   46.4027  266.0000 H   0  0  0  0  0  0  0  0  0  0  0  0
   91.3461   49.6033  268.1843 H   0  0  0  0  0  0  0  0  0  0  0  0
   91.6962   50.3146  266.5724 H   0  0  0  0  0  0  0  0  0  0  0  0
   97.4810   48.1001  268.0481 H   0  0  0  0  0  0  0  0  0  0  0  0
   96.7973   45.9477  267.1147 H   0  0  0  0  0  0  0  0  0  0  0  0
   91.9953   51.0118  269.7439 H   0  0  0  0  0  0  0  0  0  0  0  0
   92.5518   53.1659  270.8024 H   0  0  0  0  0  0  0  0  0  0  0  0
   94.4821   54.4744  270.0022 H   0  0  0  0  0  0  0  0  0  0  0  0
   95.2602   51.4954  267.0213 H   0  0  0  0  0  0  0  0  0  0  0  0
   91.4162   47.5122  264.0119 H   0  0  0  0  0  0  0  0  0  0  0  0
   88.2344   45.4005  262.3248 H   0  0  0  0  0  0  0  0  0  0  0  0
   86.8925   45.6569  264.3739 H   0  0  0  0  0  0  0  0  0  0  0  0
   87.8805   45.5794  268.9965 H   0  0  0  0  0  0  0  0  0  0  0  0
   88.3275   44.6340  267.5360 H   0  0  0  0  0  0  0  0  0  0  0  0
   89.4190   45.9278  268.1373 H   0  0  0  0  0  0  0  0  0  0  0  0
  1  4  1  0  0  0  0
  1  6  2  0  0  0  0
  1 11  1  0  0  0  0
  2  3  1  0  0  0  0
  2  5  2  0  0  0  0
  3  4  1  0  0  0  0
  3 17  2  3  0  0  0
  5  6  1  0  0  0  0
  5 10  1  0  0  0  0
  6  7  1  0  0  0  0
  7  8  2  0  0  0  0
  8  9  1  0  0  0  0
  9 10  2  0  0  0  0
 11 12  2  0  0  0  0
 11 16  1  0  0  0  0
 12 13  1  0  0  0  0
 13 14  2  0  0  0  0
 14 15  1  0  0  0  0
 15 16  2  0  0  0  0
 15 28  1  0  0  0  0
 17 18  1  0  0  0  0
 18 19  2  0  0  0  0
 18 23  1  0  0  0  0
 19 20  1  0  0  0  0
 20 21  2  0  0  0  0
 21 22  1  0  0  0  0
 22 23  2  0  0  0  0
 23 24  1  0  0  0  0
 24 25  2  0  0  0  0
 24 26  2  0  0  0  0
 24 27  1  0  0  0  0
 28 29  1  0  0  0  0
 29 30  1  0  0  0  0
 29 31  1  0  0  0  0
 29 32  1  0  0  0  0
  2 33  1  0  0  0  0
  4 34  1  0  0  0  0
  4 35  1  0  0  0  0
  8 36  1  0  0  0  0
  9 37  1  0  0  0  0
 12 38  1  0  0  0  0
 13 39  1  0  0  0  0
 14 40  1  0  0  0  0
 16 41  1  0  0  0  0
 19 42  1  0  0  0  0
 21 43  1  0  0  0  0
 22 44  1  0  0  0  0
 27 45  1  0  0  0  0
 27 46  1  0  0  0  0
 27 47  1  0  0  0  0
M  END
> <ID>
41

> <IC50[uM]>
3.844

$$$$
41
  -OEChem-05192314313D
 Structure written by MMmdl.
 47 50  0     1  0  0  0  0  0999 V2000
   93.2782   49.7896  267.6853 C   0  0  0  0  0  0  0  0  0  0  0  0
   92.5645   47.3279  266.4843 C   0  0  0  0  0  0  0  0  0  0  0  0
   91.6114   48.3242  266.6766 C   0  0  0  0  0  0  0  0  0  0  0  0
   91.9687   49.5189  267.2814 C   0  0  0  0  0  0  0  0  0  0  0  0
   93.8940   47.5285  266.9239 C   0  0  0  0  0  0  0  0  0  0  0  0
   94.2716   48.7689  267.5195 C   0  0  0  0  0  0  0  0  0  0  0  0
   95.5595   48.9594  267.9444 N   0  0  0  0  0  0  0  0  0  0  0  0
   96.4507   47.9529  267.7597 C   0  0  0  0  0  0  0  0  0  0  0  0
   96.0667   46.7376  267.2079 C   0  0  0  0  0  0  0  0  0  0  0  0
   94.7985   46.5177  266.7833 N   0  0  0  0  0  0  0  0  0  0  0  0
   93.5961   51.0950  268.3176 C   0  0  0  0  0  0  0  0  0  0  0  0
   92.8354   51.5850  269.3805 C   0  0  0  0  0  0  0  0  0  0  0  0
   93.1459   52.8020  269.9772 C   0  0  0  0  0  0  0  0  0  0  0  0
   94.2185   53.5485  269.5127 C   0  0  0  0  0  0  0  0  0  0  0  0
   94.9646   53.1033  268.4055 C   0  0  0  0  0  0  0  0  0  0  0  0
   94.6620   51.8657  267.8407 C   0  0  0  0  0  0  0  0  0  0  0  0
   90.2696   48.1131  266.3141 N   0  0  0  0  0  0  0  0  0  0  0  0
   89.7134   47.3365  265.2841 C   0  0  0  0  0  0  0  0  0  0  0  0
   90.4132   47.1201  264.0930 C   0  0  0  0  0  0  0  0  0  0  0  0
   89.9020   46.4455  263.0351 N   0  0  0  0  0  0  0  0  0  0  0  0
   88.6551   45.9413  263.1596 C   0  0  0  0  0  0  0  0  0  0  0  0
   87.8824   46.0848  264.3154 C   0  0  0  0  0  0  0  0  0  0  0  0
   88.4203   46.7966  265.3977 C   0  0  3  0  0  0  0  0  0  0  0  0
   87.4762   46.8845  266.9224 S   0  0  0  0  0  0  0  0  0  0  0  0
   86.1286   46.4001  266.6639 O   0  0  0  0  0  0  0  0  0  0  0  0
   87.6817   48.2276  267.4906 O   0  0  0  0  0  0  0  0  0  0  0  0
   88.3690   45.6249  268.0119 C   0  0  0  0  0  0  0  0  0  0  0  0
   95.9690   53.8069  267.7995 O   0  0  0  0  0  0  0  0  0  0  0  0
   96.3470   55.0729  268.3310 C   0  0  0  0  0  0  0  0  0  0  0  0
   97.3096   55.5398  267.5396 F   0  0  0  0  0  0  0  0  0  0  0  0
   95.3611   55.9453  268.3259 F   0  0  0  0  0  0  0  0  0  0  0  0
   96.7836   54.9621  269.5556 F   0  0  0  0  0  0  0  0  0  0  0  0
   92.2891   46.4027  266.0000 H   0  0  0  0  0  0  0  0  0  0  0  0
   91.2076   50.2672  267.4463 H   0  0  0  0  0  0  0  0  0  0  0  0
   97.4810   48.1001  268.0481 H   0  0  0  0  0  0  0  0  0  0  0  0
   96.7973   45.9477  267.1147 H   0  0  0  0  0  0  0  0  0  0  0  0
   91.9953   51.0118  269.7439 H   0  0  0  0  0  0  0  0  0  0  0  0
   92.5518   53.1659  270.8024 H   0  0  0  0  0  0  0  0  0  0  0  0
   94.4821   54.4744  270.0022 H   0  0  0  0  0  0  0  0  0  0  0  0
   95.2602   51.4954  267.0213 H   0  0  0  0  0  0  0  0  0  0  0  0
   91.4162   47.5122  264.0119 H   0  0  0  0  0  0  0  0  0  0  0  0
   88.2344   45.4005  262.3248 H   0  0  0  0  0  0  0  0  0  0  0  0
   86.8925   45.6569  264.3739 H   0  0  0  0  0  0  0  0  0  0  0  0
   87.9689   47.7338  265.0399 H   0  0  0  0  0  0  0  0  0  0  0  0
   87.8805   45.5794  268.9965 H   0  0  0  0  0  0  0  0  0  0  0  0
   88.3275   44.6340  267.5360 H   0  0  0  0  0  0  0  0  0  0  0  0
   89.4190   45.9278  268.1373 H   0  0  0  0  0  0  0  0  0  0  0  0
  1  4  2  0  0  0  0
  1  6  1  0  0  0  0
  1 11  1  0  0  0  0
  2  3  2  0  0  0  0
  2  5  1  0  0  0  0
  3  4  1  0  0  0  0
  3 17  1  0  0  0  0
  5  6  2  0  0  0  0
  5 10  1  0  0  0  0
  6  7  1  0  0  0  0
  7  8  2  0  0  0  0
  8  9  1  0  0  0  0
  9 10  2  0  0  0  0
 11 12  2  0  0  0  0
 11 16  1  0  0  0  0
 12 13  1  0  0  0  0
 13 14  2  0  0  0  0
 14 15  1  0  0  0  0
 15 16  2  0  0  0  0
 15 28  1  0  0  0  0
 17 18  2  0  0  0  0
 18 19  1  0  0  0  0
 18 23  1  0  0  0  0
 19 20  2  0  0  0  0
 20 21  1  0  0  0  0
 21 22  2  0  0  0  0
 22 23  1  0  0  0  0
 23 24  1  0  0  0  0
 24 25  2  0  0  0  0
 24 26  2  0  0  0  0
 24 27  1  0  0  0  0
 28 29  1  0  0  0  0
 29 30  1  0  0  0  0
 29 31  1  0  0  0  0
 29 32  1  0  0  0  0
  2 33  1  0  0  0  0
  4 34  1  0  0  0  0
  8 35  1  0  0  0  0
  9 36  1  0  0  0  0
 12 37  1  0  0  0  0
 13 38  1  0  0  0  0
 14 39  1  0  0  0  0
 16 40  1  0  0  0  0
 19 41  1  0  0  0  0
 21 42  1  0  0  0  0
 22 43  1  0  0  0  0
 23 44  1  0  0  0  0
 27 45  1  0  0  0  0
 27 46  1  0  0  0  0
 27 47  1  0  0  0  0
M  END
> <ID>
41

> <IC50[uM]>
3.844

$$$$
41
  -OEChem-05192314313D
 Structure written by MMmdl.
 47 50  0     0  0  0  0  0  0999 V2000
   93.2782   49.7896  267.6853 C   0  0  0  0  0  0  0  0  0  0  0  0
   92.5645   47.3279  266.4843 C   0  0  0  0  0  0  0  0  0  0  0  0
   91.6114   48.3242  266.6766 C   0  0  0  0  0  0  0  0  0  0  0  0
   91.9687   49.5189  267.2814 C   0  0  0  0  0  0  0  0  0  0  0  0
   93.8940   47.5285  266.9239 C   0  0  0  0  0  0  0  0  0  0  0  0
   94.2716   48.7689  267.5195 C   0  0  0  0  0  0  0  0  0  0  0  0
   95.5595   48.9594  267.9444 N   0  0  0  0  0  0  0  0  0  0  0  0
   96.4507   47.9529  267.7597 C   0  0  0  0  0  0  0  0  0  0  0  0
   96.0667   46.7376  267.2079 C   0  0  0  0  0  0  0  0  0  0  0  0
   94.7985   46.5177  266.7833 N   0  0  0  0  0  0  0  0  0  0  0  0
   93.5961   51.0950  268.3176 C   0  0  0  0  0  0  0  0  0  0  0  0
   92.8354   51.5850  269.3805 C   0  0  0  0  0  0  0  0  0  0  0  0
   93.1459   52.8020  269.9772 C   0  0  0  0  0  0  0  0  0  0  0  0
   94.2185   53.5485  269.5127 C   0  0  0  0  0  0  0  0  0  0  0  0
   94.9646   53.1033  268.4055 C   0  0  0  0  0  0  0  0  0  0  0  0
   94.6620   51.8657  267.8407 C   0  0  0  0  0  0  0  0  0  0  0  0
   90.2696   48.1131  266.3141 N   0  0  0  0  0  0  0  0  0  0  0  0
   89.7134   47.3365  265.2841 C   0  0  0  0  0  0  0  0  0  0  0  0
   90.4132   47.1201  264.0930 C   0  0  0  0  0  0  0  0  0  0  0  0
   89.9020   46.4455  263.0351 N   0  0  0  0  0  0  0  0  0  0  0  0
   88.6551   45.9413  263.1596 C   0  0  0  0  0  0  0  0  0  0  0  0
   87.8824   46.0848  264.3154 C   0  0  0  0  0  0  0  0  0  0  0  0
   88.4203   46.7966  265.3977 C   0  0  0  0  0  0  0  0  0  0  0  0
   87.4762   46.8845  266.9224 S   0  0  0  0  0  0  0  0  0  0  0  0
   86.1286   46.4001  266.6639 O   0  0  0  0  0  0  0  0  0  0  0  0
   87.6817   48.2276  267.4906 O   0  0  0  0  0  0  0  0  0  0  0  0
   88.3690   45.6249  268.0119 C   0  0  0  0  0  0  0  0  0  0  0  0
   95.9690   53.8069  267.7995 O   0  0  0  0  0  0  0  0  0  0  0  0
   96.3470   55.0729  268.3310 C   0  0  0  0  0  0  0  0  0  0  0  0
   97.3096   55.5398  267.5396 F   0  0  0  0  0  0  0  0  0  0  0  0
   95.3611   55.9453  268.3259 F   0  0  0  0  0  0  0  0  0  0  0  0
   96.7836   54.9621  269.5556 F   0  0  0  0  0  0  0  0  0  0  0  0
   92.2891   46.4027  266.0000 H   0  0  0  0  0  0  0  0  0  0  0  0
   91.2076   50.2672  267.4463 H   0  0  0  0  0  0  0  0  0  0  0  0
   97.4810   48.1001  268.0481 H   0  0  0  0  0  0  0  0  0  0  0  0
   96.7973   45.9477  267.1147 H   0  0  0  0  0  0  0  0  0  0  0  0
   91.9953   51.0118  269.7439 H   0  0  0  0  0  0  0  0  0  0  0  0
   92.5518   53.1659  270.8024 H   0  0  0  0  0  0  0  0  0  0  0  0
   94.4821   54.4744  270.0022 H   0  0  0  0  0  0  0  0  0  0  0  0
   95.2602   51.4954  267.0213 H   0  0  0  0  0  0  0  0  0  0  0  0
   91.4162   47.5122  264.0119 H   0  0  0  0  0  0  0  0  0  0  0  0
   88.0660   46.3884  262.3453 H   0  0  0  0  0  0  0  0  0  0  0  0
   88.7494   44.8582  262.9921 H   0  0  0  0  0  0  0  0  0  0  0  0
   86.8925   45.6569  264.3739 H   0  0  0  0  0  0  0  0  0  0  0  0
   87.8805   45.5794  268.9965 H   0  0  0  0  0  0  0  0  0  0  0  0
   88.3275   44.6340  267.5360 H   0  0  0  0  0  0  0  0  0  0  0  0
   89.4190   45.9278  268.1373 H   0  0  0  0  0  0  0  0  0  0  0  0
  1  4  2  0  0  0  0
  1  6  1  0  0  0  0
  1 11  1  0  0  0  0
  2  3  2  0  0  0  0
  2  5  1  0  0  0  0
  3  4  1  0  0  0  0
  3 17  1  0  0  0  0
  5  6  2  0  0  0  0
  5 10  1  0  0  0  0
  6  7  1  0  0  0  0
  7  8  2  0  0  0  0
  8  9  1  0  0  0  0
  9 10  2  0  0  0  0
 11 12  2  0  0  0  0
 11 16  1  0  0  0  0
 12 13  1  0  0  0  0
 13 14  2  0  0  0  0
 14 15  1  0  0  0  0
 15 16  2  0  0  0  0
 15 28  1  0  0  0  0
 17 18  2  0  0  0  0
 18 19  1  0  0  0  0
 18 23  1  0  0  0  0
 19 20  2  0  0  0  0
 20 21  1  0  0  0  0
 21 22  1  0  0  0  0
 22 23  2  0  0  0  0
 23 24  1  0  0  0  0
 24 25  2  0  0  0  0
 24 26  2  0  0  0  0
 24 27  1  0  0  0  0
 28 29  1  0  0  0  0
 29 30  1  0  0  0  0
 29 31  1  0  0  0  0
 29 32  1  0  0  0  0
  2 33  1  0  0  0  0
  4 34  1  0  0  0  0
  8 35  1  0  0  0  0
  9 36  1  0  0  0  0
 12 37  1  0  0  0  0
 13 38  1  0  0  0  0
 14 39  1  0  0  0  0
 16 40  1  0  0  0  0
 19 41  1  0  0  0  0
 21 42  1  0  0  0  0
 21 43  1  0  0  0  0
 22 44  1  0  0  0  0
 27 45  1  0  0  0  0
 27 46  1  0  0  0  0
 27 47  1  0  0  0  0
M  END
> <ID>
41

> <IC50[uM]>
3.844

$$$$
41
  -OEChem-05192314313D
 Structure written by MMmdl.
 47 50  0     0  0  0  0  0  0999 V2000
   93.2782   49.7896  267.6853 C   0  0  0  0  0  0  0  0  0  0  0  0
   92.5645   47.3279  266.4843 C   0  0  0  0  0  0  0  0  0  0  0  0
   91.6114   48.3242  266.6766 C   0  0  0  0  0  0  0  0  0  0  0  0
   91.9687   49.5189  267.2814 C   0  0  0  0  0  0  0  0  0  0  0  0
   93.8940   47.5285  266.9239 C   0  0  0  0  0  0  0  0  0  0  0  0
   94.2716   48.7689  267.5195 C   0  0  0  0  0  0  0  0  0  0  0  0
   95.5595   48.9594  267.9444 N   0  0  0  0  0  0  0  0  0  0  0  0
   96.4507   47.9529  267.7597 C   0  0  0  0  0  0  0  0  0  0  0  0
   96.0667   46.7376  267.2079 C   0  0  0  0  0  0  0  0  0  0  0  0
   94.7985   46.5177  266.7833 N   0  0  0  0  0  0  0  0  0  0  0  0
   93.5961   51.0950  268.3176 C   0  0  0  0  0  0  0  0  0  0  0  0
   92.8354   51.5850  269.3805 C   0  0  0  0  0  0  0  0  0  0  0  0
   93.1459   52.8020  269.9772 C   0  0  0  0  0  0  0  0  0  0  0  0
   94.2185   53.5485  269.5127 C   0  0  0  0  0  0  0  0  0  0  0  0
   94.9646   53.1033  268.4055 C   0  0  0  0  0  0  0  0  0  0  0  0
   94.6620   51.8657  267.8407 C   0  0  0  0  0  0  0  0  0  0  0  0
   90.2696   48.1131  266.3141 N   0  0  0  0  0  0  0  0  0  0  0  0
   89.7134   47.3365  265.2841 C   0  0  0  0  0  0  0  0  0  0  0  0
   90.4132   47.1201  264.0930 C   0  0  0  0  0  0  0  0  0  0  0  0
   89.9020   46.4455  263.0351 N   0  0  0  0  0  0  0  0  0  0  0  0
   88.6551   45.9413  263.1596 C   0  0  0  0  0  0  0  0  0  0  0  0
   87.8824   46.0848  264.3154 C   0  0  0  0  0  0  0  0  0  0  0  0
   88.4203   46.7966  265.3977 C   0  0  0  0  0  0  0  0  0  0  0  0
   87.4762   46.8845  266.9224 S   0  0  0  0  0  0  0  0  0  0  0  0
   86.1286   46.4001  266.6639 O   0  0  0  0  0  0  0  0  0  0  0  0
   87.6817   48.2276  267.4906 O   0  0  0  0  0  0  0  0  0  0  0  0
   88.3690   45.6249  268.0119 C   0  0  0  0  0  0  0  0  0  0  0  0
   95.9690   53.8069  267.7995 O   0  0  0  0  0  0  0  0  0  0  0  0
   96.3470   55.0729  268.3310 C   0  0  0  0  0  0  0  0  0  0  0  0
   97.3096   55.5398  267.5396 F   0  0  0  0  0  0  0  0  0  0  0  0
   95.3611   55.9453  268.3259 F   0  0  0  0  0  0  0  0  0  0  0  0
   96.7836   54.9621  269.5556 F   0  0  0  0  0  0  0  0  0  0  0  0
   92.2891   46.4027  266.0000 H   0  0  0  0  0  0  0  0  0  0  0  0
   91.2076   50.2672  267.4463 H   0  0  0  0  0  0  0  0  0  0  0  0
   97.4810   48.1001  268.0481 H   0  0  0  0  0  0  0  0  0  0  0  0
   96.7973   45.9477  267.1147 H   0  0  0  0  0  0  0  0  0  0  0  0
   91.9953   51.0118  269.7439 H   0  0  0  0  0  0  0  0  0  0  0  0
   92.5518   53.1659  270.8024 H   0  0  0  0  0  0  0  0  0  0  0  0
   94.4821   54.4744  270.0022 H   0  0  0  0  0  0  0  0  0  0  0  0
   95.2602   51.4954  267.0213 H   0  0  0  0  0  0  0  0  0  0  0  0
   90.6760   48.1186  263.7136 H   0  0  0  0  0  0  0  0  0  0  0  0
   91.3301   46.5828  264.3770 H   0  0  0  0  0  0  0  0  0  0  0  0
   88.2344   45.4005  262.3248 H   0  0  0  0  0  0  0  0  0  0  0  0
   86.8925   45.6569  264.3739 H   0  0  0  0  0  0  0  0  0  0  0  0
   87.8805   45.5794  268.9965 H   0  0  0  0  0  0  0  0  0  0  0  0
   88.3275   44.6340  267.5360 H   0  0  0  0  0  0  0  0  0  0  0  0
   89.4190   45.9278  268.1373 H   0  0  0  0  0  0  0  0  0  0  0  0
  1  4  2  0  0  0  0
  1  6  1  0  0  0  0
  1 11  1  0  0  0  0
  2  3  2  0  0  0  0
  2  5  1  0  0  0  0
  3  4  1  0  0  0  0
  3 17  1  0  0  0  0
  5  6  2  0  0  0  0
  5 10  1  0  0  0  0
  6  7  1  0  0  0  0
  7  8  2  0  0  0  0
  8  9  1  0  0  0  0
  9 10  2  0  0  0  0
 11 12  2  0  0  0  0
 11 16  1  0  0  0  0
 12 13  1  0  0  0  0
 13 14  2  0  0  0  0
 14 15  1  0  0  0  0
 15 16  2  0  0  0  0
 15 28  1  0  0  0  0
 17 18  2  0  0  0  0
 18 19  1  0  0  0  0
 18 23  1  0  0  0  0
 19 20  1  0  0  0  0
 20 21  2  0  0  0  0
 21 22  1  0  0  0  0
 22 23  2  0  0  0  0
 23 24  1  0  0  0  0
 24 25  2  0  0  0  0
 24 26  2  0  0  0  0
 24 27  1  0  0  0  0
 28 29  1  0  0  0  0
 29 30  1  0  0  0  0
 29 31  1  0  0  0  0
 29 32  1  0  0  0  0
  2 33  1  0  0  0  0
  4 34  1  0  0  0  0
  8 35  1  0  0  0  0
  9 36  1  0  0  0  0
 12 37  1  0  0  0  0
 13 38  1  0  0  0  0
 14 39  1  0  0  0  0
 16 40  1  0  0  0  0
 19 41  1  0  0  0  0
 19 42  1  0  0  0  0
 21 43  1  0  0  0  0
 22 44  1  0  0  0  0
 27 45  1  0  0  0  0
 27 46  1  0  0  0  0
 27 47  1  0  0  0  0
M  END
> <ID>
41

> <IC50[uM]>
3.844

$$$$
41
  -OEChem-05192314313D
 Structure written by MMmdl.
 47 50  0     1  0  0  0  0  0999 V2000
   93.2782   49.7896  267.6853 C   0  0  0  0  0  0  0  0  0  0  0  0
   92.5645   47.3279  266.4843 C   0  0  0  0  0  0  0  0  0  0  0  0
   91.6114   48.3242  266.6766 C   0  0  0  0  0  0  0  0  0  0  0  0
   91.9687   49.5189  267.2814 C   0  0  0  0  0  0  0  0  0  0  0  0
   93.8940   47.5285  266.9239 C   0  0  0  0  0  0  0  0  0  0  0  0
   94.2716   48.7689  267.5195 C   0  0  3  0  0  0  0  0  0  0  0  0
   95.5595   48.9594  267.9444 N   0  0  0  0  0  0  0  0  0  0  0  0
   96.4507   47.9529  267.7597 C   0  0  0  0  0  0  0  0  0  0  0  0
   96.0667   46.7376  267.2079 C   0  0  0  0  0  0  0  0  0  0  0  0
   94.7985   46.5177  266.7833 N   0  0  0  0  0  0  0  0  0  0  0  0
   93.5961   51.0950  268.3176 C   0  0  0  0  0  0  0  0  0  0  0  0
   92.8354   51.5850  269.3805 C   0  0  0  0  0  0  0  0  0  0  0  0
   93.1459   52.8020  269.9772 C   0  0  0  0  0  0  0  0  0  0  0  0
   94.2185   53.5485  269.5127 C   0  0  0  0  0  0  0  0  0  0  0  0
   94.9646   53.1033  268.4055 C   0  0  0  0  0  0  0  0  0  0  0  0
   94.6620   51.8657  267.8407 C   0  0  0  0  0  0  0  0  0  0  0  0
   90.2696   48.1131  266.3141 N   0  0  0  0  0  0  0  0  0  0  0  0
   89.7134   47.3365  265.2841 C   0  0  0  0  0  0  0  0  0  0  0  0
   90.4132   47.1201  264.0930 C   0  0  0  0  0  0  0  0  0  0  0  0
   89.9020   46.4455  263.0351 N   0  0  0  0  0  0  0  0  0  0  0  0
   88.6551   45.9413  263.1596 C   0  0  0  0  0  0  0  0  0  0  0  0
   87.8824   46.0848  264.3154 C   0  0  0  0  0  0  0  0  0  0  0  0
   88.4203   46.7966  265.3977 C   0  0  0  0  0  0  0  0  0  0  0  0
   87.4762   46.8845  266.9224 S   0  0  0  0  0  0  0  0  0  0  0  0
   86.1286   46.4001  266.6639 O   0  0  0  0  0  0  0  0  0  0  0  0
   87.6817   48.2276  267.4906 O   0  0  0  0  0  0  0  0  0  0  0  0
   88.3690   45.6249  268.0119 C   0  0  0  0  0  0  0  0  0  0  0  0
   95.9690   53.8069  267.7995 O   0  0  0  0  0  0  0  0  0  0  0  0
   96.3470   55.0729  268.3310 C   0  0  0  0  0  0  0  0  0  0  0  0
   97.3096   55.5398  267.5396 F   0  0  0  0  0  0  0  0  0  0  0  0
   95.3611   55.9453  268.3259 F   0  0  0  0  0  0  0  0  0  0  0  0
   96.7836   54.9621  269.5556 F   0  0  0  0  0  0  0  0  0  0  0  0
   92.2891   46.4027  266.0000 H   0  0  0  0  0  0  0  0  0  0  0  0
   91.2076   50.2672  267.4463 H   0  0  0  0  0  0  0  0  0  0  0  0
   94.5310   49.1728  266.5298 H   0  0  0  0  0  0  0  0  0  0  0  0
   97.4810   48.1001  268.0481 H   0  0  0  0  0  0  0  0  0  0  0  0
   96.7973   45.9477  267.1147 H   0  0  0  0  0  0  0  0  0  0  0  0
   91.9953   51.0118  269.7439 H   0  0  0  0  0  0  0  0  0  0  0  0
   92.5518   53.1659  270.8024 H   0  0  0  0  0  0  0  0  0  0  0  0
   94.4821   54.4744  270.0022 H   0  0  0  0  0  0  0  0  0  0  0  0
   95.2602   51.4954  267.0213 H   0  0  0  0  0  0  0  0  0  0  0  0
   91.4162   47.5122  264.0119 H   0  0  0  0  0  0  0  0  0  0  0  0
   88.2344   45.4005  262.3248 H   0  0  0  0  0  0  0  0  0  0  0  0
   86.8925   45.6569  264.3739 H   0  0  0  0  0  0  0  0  0  0  0  0
   87.8805   45.5794  268.9965 H   0  0  0  0  0  0  0  0  0  0  0  0
   88.3275   44.6340  267.5360 H   0  0  0  0  0  0  0  0  0  0  0  0
   89.4190   45.9278  268.1373 H   0  0  0  0  0  0  0  0  0  0  0  0
  1  4  2  0  0  0  0
  1  6  1  0  0  0  0
  1 11  1  0  0  0  0
  2  3  1  0  0  0  0
  2  5  2  0  0  0  0
  3  4  1  0  0  0  0
  3 17  2  3  0  0  0
  5  6  1  0  0  0  0
  5 10  1  0  0  0  0
  6  7  1  0  0  0  0
  7  8  2  0  0  0  0
  8  9  1  0  0  0  0
  9 10  2  0  0  0  0
 11 12  2  0  0  0  0
 11 16  1  0  0  0  0
 12 13  1  0  0  0  0
 13 14  2  0  0  0  0
 14 15  1  0  0  0  0
 15 16  2  0  0  0  0
 15 28  1  0  0  0  0
 17 18  1  0  0  0  0
 18 19  2  0  0  0  0
 18 23  1  0  0  0  0
 19 20  1  0  0  0  0
 20 21  2  0  0  0  0
 21 22  1  0  0  0  0
 22 23  2  0  0  0  0
 23 24  1  0  0  0  0
 24 25  2  0  0  0  0
 24 26  2  0  0  0  0
 24 27  1  0  0  0  0
 28 29  1  0  0  0  0
 29 30  1  0  0  0  0
 29 31  1  0  0  0  0
 29 32  1  0  0  0  0
  2 33  1  0  0  0  0
  4 34  1  0  0  0  0
  6 35  1  0  0  0  0
  8 36  1  0  0  0  0
  9 37  1  0  0  0  0
 12 38  1  0  0  0  0
 13 39  1  0  0  0  0
 14 40  1  0  0  0  0
 16 41  1  0  0  0  0
 19 42  1  0  0  0  0
 21 43  1  0  0  0  0
 22 44  1  0  0  0  0
 27 45  1  0  0  0  0
 27 46  1  0  0  0  0
 27 47  1  0  0  0  0
M  END
> <ID>
41

> <IC50[uM]>
3.844

$$$$
41
  -OEChem-05192314313D
 Structure written by MMmdl.
 47 50  0     0  0  0  0  0  0999 V2000
   93.2782   49.7896  267.6853 C   0  0  0  0  0  0  0  0  0  0  0  0
   92.5645   47.3279  266.4843 C   0  0  0  0  0  0  0  0  0  0  0  0
   91.6114   48.3242  266.6766 C   0  0  0  0  0  0  0  0  0  0  0  0
   91.9687   49.5189  267.2814 C   0  0  0  0  0  0  0  0  0  0  0  0
   93.8940   47.5285  266.9239 C   0  0  0  0  0  0  0  0  0  0  0  0
   94.2716   48.7689  267.5195 C   0  0  0  0  0  0  0  0  0  0  0  0
   95.5595   48.9594  267.9444 N   0  0  0  0  0  0  0  0  0  0  0  0
   96.4507   47.9529  267.7597 C   0  0  0  0  0  0  0  0  0  0  0  0
   96.0667   46.7376  267.2079 C   0  0  0  0  0  0  0  0  0  0  0  0
   94.7985   46.5177  266.7833 N   0  0  0  0  0  0  0  0  0  0  0  0
   93.5961   51.0950  268.3176 C   0  0  0  0  0  0  0  0  0  0  0  0
   92.8354   51.5850  269.3805 C   0  0  0  0  0  0  0  0  0  0  0  0
   93.1459   52.8020  269.9772 C   0  0  0  0  0  0  0  0  0  0  0  0
   94.2185   53.5485  269.5127 C   0  0  0  0  0  0  0  0  0  0  0  0
   94.9646   53.1033  268.4055 C   0  0  0  0  0  0  0  0  0  0  0  0
   94.6620   51.8657  267.8407 C   0  0  0  0  0  0  0  0  0  0  0  0
   90.2696   48.1131  266.3141 N   0  0  0  0  0  0  0  0  0  0  0  0
   89.7134   47.3365  265.2841 C   0  0  0  0  0  0  0  0  0  0  0  0
   90.4132   47.1201  264.0930 C   0  0  0  0  0  0  0  0  0  0  0  0
   89.9020   46.4455  263.0351 N   0  0  0  0  0  0  0  0  0  0  0  0
   88.6551   45.9413  263.1596 C   0  0  0  0  0  0  0  0  0  0  0  0
   87.8824   46.0848  264.3154 C   0  0  0  0  0  0  0  0  0  0  0  0
   88.4203   46.7966  265.3977 C   0  0  0  0  0  0  0  0  0  0  0  0
   87.4762   46.8845  266.9224 S   0  0  0  0  0  0  0  0  0  0  0  0
   86.1286   46.4001  266.6639 O   0  0  0  0  0  0  0  0  0  0  0  0
   87.6817   48.2276  267.4906 O   0  0  0  0  0  0  0  0  0  0  0  0
   88.3690   45.6249  268.0119 C   0  0  0  0  0  0  0  0  0  0  0  0
   95.9690   53.8069  267.7995 O   0  0  0  0  0  0  0  0  0  0  0  0
   96.3470   55.0729  268.3310 C   0  0  0  0  0  0  0  0  0  0  0  0
   97.3096   55.5398  267.5396 F   0  0  0  0  0  0  0  0  0  0  0  0
   95.3611   55.9453  268.3259 F   0  0  0  0  0  0  0  0  0  0  0  0
   96.7836   54.9621  269.5556 F   0  0  0  0  0  0  0  0  0  0  0  0
   92.2891   46.4027  266.0000 H   0  0  0  0  0  0  0  0  0  0  0  0
   91.2076   50.2672  267.4463 H   0  0  0  0  0  0  0  0  0  0  0  0
   97.2414   48.3537  267.1085 H   0  0  0  0  0  0  0  0  0  0  0  0
   96.8717   47.7252  268.7501 H   0  0  0  0  0  0  0  0  0  0  0  0
   96.7973   45.9477  267.1147 H   0  0  0  0  0  0  0  0  0  0  0  0
   91.9953   51.0118  269.7439 H   0  0  0  0  0  0  0  0  0  0  0  0
   92.5518   53.1659  270.8024 H   0  0  0  0  0  0  0  0  0  0  0  0
   94.4821   54.4744  270.0022 H   0  0  0  0  0  0  0  0  0  0  0  0
   95.2602   51.4954  267.0213 H   0  0  0  0  0  0  0  0  0  0  0  0
   91.4162   47.5122  264.0119 H   0  0  0  0  0  0  0  0  0  0  0  0
   88.2344   45.4005  262.3248 H   0  0  0  0  0  0  0  0  0  0  0  0
   86.8925   45.6569  264.3739 H   0  0  0  0  0  0  0  0  0  0  0  0
   87.8805   45.5794  268.9965 H   0  0  0  0  0  0  0  0  0  0  0  0
   88.3275   44.6340  267.5360 H   0  0  0  0  0  0  0  0  0  0  0  0
   89.4190   45.9278  268.1373 H   0  0  0  0  0  0  0  0  0  0  0  0
  1  4  2  0  0  0  0
  1  6  1  0  0  0  0
  1 11  1  0  0  0  0
  2  3  1  0  0  0  0
  2  5  2  0  0  0  0
  3  4  1  0  0  0  0
  3 17  2  3  0  0  0
  5  6  1  0  0  0  0
  5 10  1  0  0  0  0
  6  7  2  0  0  0  0
  7  8  1  0  0  0  0
  8  9  1  0  0  0  0
  9 10  2  0  0  0  0
 11 12  2  0  0  0  0
 11 16  1  0  0  0  0
 12 13  1  0  0  0  0
 13 14  2  0  0  0  0
 14 15  1  0  0  0  0
 15 16  2  0  0  0  0
 15 28  1  0  0  0  0
 17 18  1  0  0  0  0
 18 19  2  0  0  0  0
 18 23  1  0  0  0  0
 19 20  1  0  0  0  0
 20 21  2  0  0  0  0
 21 22  1  0  0  0  0
 22 23  2  0  0  0  0
 23 24  1  0  0  0  0
 24 25  2  0  0  0  0
 24 26  2  0  0  0  0
 24 27  1  0  0  0  0
 28 29  1  0  0  0  0
 29 30  1  0  0  0  0
 29 31  1  0  0  0  0
 29 32  1  0  0  0  0
  2 33  1  0  0  0  0
  4 34  1  0  0  0  0
  8 35  1  0  0  0  0
  8 36  1  0  0  0  0
  9 37  1  0  0  0  0
 12 38  1  0  0  0  0
 13 39  1  0  0  0  0
 14 40  1  0  0  0  0
 16 41  1  0  0  0  0
 19 42  1  0  0  0  0
 21 43  1  0  0  0  0
 22 44  1  0  0  0  0
 27 45  1  0  0  0  0
 27 46  1  0  0  0  0
 27 47  1  0  0  0  0
M  END
> <ID>
41

> <IC50[uM]>
3.844

$$$$
