68
  -OEChem-05192314313D
 Structure written by MMmdl.
 48 52  0     0  0  0  0  0  0999 V2000
   92.5906   47.2900  266.3444 C   0  0  0  0  0  0  0  0  0  0  0  0
   91.5700   48.2152  266.5159 C   0  0  0  0  0  0  0  0  0  0  0  0
   91.8167   49.4248  267.1546 C   0  0  0  0  0  0  0  0  0  0  0  0
   93.0889   49.7623  267.6340 C   0  0  0  0  0  0  0  0  0  0  0  0
   93.8920   47.5770  266.8285 C   0  0  0  0  0  0  0  0  0  0  0  0
   94.1480   48.8244  267.4865 C   0  0  0  0  0  0  0  0  0  0  0  0
   95.3850   49.0832  268.0126 N   0  0  0  0  0  0  0  0  0  0  0  0
   96.3430   48.1354  267.8658 C   0  0  0  0  0  0  0  0  0  0  0  0
   96.0897   46.9257  267.2216 C   0  0  0  0  0  0  0  0  0  0  0  0
   94.8705   46.6478  266.6904 N   0  0  0  0  0  0  0  0  0  0  0  0
   93.2613   51.0285  268.3807 C   0  0  0  0  0  0  0  0  0  0  0  0
   90.2520   47.9338  266.1399 N   0  0  0  0  0  0  0  0  0  0  0  0
   89.7015   47.1928  265.0832 C   0  0  0  0  0  0  0  0  0  0  0  0
   90.4532   46.9549  263.9208 C   0  0  0  0  0  0  0  0  0  0  0  0
   89.9543   46.3298  262.8373 N   0  0  0  0  0  0  0  0  0  0  0  0
   88.6785   45.8812  262.8956 C   0  0  0  0  0  0  0  0  0  0  0  0
   87.8678   46.0387  264.0101 C   0  0  0  0  0  0  0  0  0  0  0  0
   88.3733   46.7249  265.1240 C   0  0  0  0  0  0  0  0  0  0  0  0
   87.3145   46.9352  266.5561 S   0  0  0  0  0  0  0  0  0  0  0  0
   87.5376   48.2780  267.1026 O   0  0  0  0  0  0  0  0  0  0  0  0
   85.9614   46.5209  266.1752 O   0  0  0  0  0  0  0  0  0  0  0  0
   88.0033   45.6830  267.7810 C   0  0  0  0  0  0  0  0  0  0  0  0
   94.2676   51.9515  268.0760 C   0  0  0  0  0  0  0  0  0  0  0  0
   94.4607   53.0907  268.8507 C   0  0  0  0  0  0  0  0  0  0  0  0
   92.4286   51.2390  269.4665 C   0  0  0  0  0  0  0  0  0  0  0  0
   92.6104   52.3297  270.2980 C   0  0  0  0  0  0  0  0  0  0  0  0
   93.6343   53.2671  269.9747 C   0  0  0  0  0  0  0  0  0  0  0  0
   93.6567   54.5790  271.1456 S   0  0  0  0  0  0  0  0  0  0  0  0
   92.4470   53.7602  272.0760 C   0  0  0  0  0  0  0  0  0  0  0  0
   91.9259   52.6515  271.4883 C   0  0  0  0  0  0  0  0  0  0  0  0
   92.0631   54.2673  273.2652 N   0  0  0  0  0  0  0  0  0  0  0  0
   92.3938   46.3537  265.8434 H   0  0  0  0  0  0  0  0  0  0  0  0
   91.0044   50.1244  267.2850 H   0  0  0  0  0  0  0  0  0  0  0  0
   97.3310   48.3231  268.2594 H   0  0  0  0  0  0  0  0  0  0  0  0
   96.8796   46.1934  267.1429 H   0  0  0  0  0  0  0  0  0  0  0  0
   89.5669   48.3414  266.7437 H   0  0  0  0  0  0  0  0  0  0  0  0
   91.4799   47.2891  263.8947 H   0  0  0  0  0  0  0  0  0  0  0  0
   88.2719   45.3759  262.0320 H   0  0  0  0  0  0  0  0  0  0  0  0
   86.8643   45.6397  264.0199 H   0  0  0  0  0  0  0  0  0  0  0  0
   87.4214   45.7233  268.7136 H   0  0  0  0  0  0  0  0  0  0  0  0
   87.9356   44.6732  267.3500 H   0  0  0  0  0  0  0  0  0  0  0  0
   89.0558   45.9204  267.9951 H   0  0  0  0  0  0  0  0  0  0  0  0
   94.9066   51.7763  267.2231 H   0  0  0  0  0  0  0  0  0  0  0  0
   95.2201   53.8156  268.5973 H   0  0  0  0  0  0  0  0  0  0  0  0
   91.6272   50.5432  269.6669 H   0  0  0  0  0  0  0  0  0  0  0  0
   91.0932   52.0881  271.8827 H   0  0  0  0  0  0  0  0  0  0  0  0
   92.5730   55.1075  273.4501 H   0  0  0  0  0  0  0  0  0  0  0  0
   91.0842   54.4702  273.2406 H   0  0  0  0  0  0  0  0  0  0  0  0
  1  2  2  0  0  0  0
  1  5  1  0  0  0  0
  2  3  1  0  0  0  0
  2 12  1  0  0  0  0
  3  4  2  0  0  0  0
  4  6  1  0  0  0  0
  4 11  1  0  0  0  0
  5  6  2  0  0  0  0
  5 10  1  0  0  0  0
  6  7  1  0  0  0  0
  7  8  2  0  0  0  0
  8  9  1  0  0  0  0
  9 10  2  0  0  0  0
 11 23  2  0  0  0  0
 11 25  1  0  0  0  0
 12 13  1  0  0  0  0
 13 14  2  0  0  0  0
 13 18  1  0  0  0  0
 14 15  1  0  0  0  0
 15 16  2  0  0  0  0
 16 17  1  0  0  0  0
 17 18  2  0  0  0  0
 18 19  1  0  0  0  0
 19 20  2  0  0  0  0
 19 21  2  0  0  0  0
 19 22  1  0  0  0  0
 23 24  1  0  0  0  0
 24 27  2  0  0  0  0
 25 26  2  0  0  0  0
 26 27  1  0  0  0  0
 26 30  1  0  0  0  0
 27 28  1  0  0  0  0
 28 29  1  0  0  0  0
 29 30  2  0  0  0  0
 29 31  1  0  0  0  0
  1 32  1  0  0  0  0
  3 33  1  0  0  0  0
  8 34  1  0  0  0  0
  9 35  1  0  0  0  0
 12 36  1  0  0  0  0
 14 37  1  0  0  0  0
 16 38  1  0  0  0  0
 17 39  1  0  0  0  0
 22 40  1  0  0  0  0
 22 41  1  0  0  0  0
 22 42  1  0  0  0  0
 23 43  1  0  0  0  0
 24 44  1  0  0  0  0
 25 45  1  0  0  0  0
 30 46  1  0  0  0  0
 31 47  1  0  0  0  0
 31 48  1  0  0  0  0
M  END
> <ID>
68

> <IC50[uM]>
0.068

$$$$
68
  -OEChem-05192314313D
 Structure written by MMmdl.
 48 52  0     0  0  0  0  0  0999 V2000
   92.5906   47.2900  266.3444 C   0  0  0  0  0  0  0  0  0  0  0  0
   91.5700   48.2152  266.5159 C   0  0  0  0  0  0  0  0  0  0  0  0
   91.8167   49.4248  267.1546 C   0  0  0  0  0  0  0  0  0  0  0  0
   93.0889   49.7623  267.6340 C   0  0  0  0  0  0  0  0  0  0  0  0
   93.8920   47.5770  266.8285 C   0  0  0  0  0  0  0  0  0  0  0  0
   94.1480   48.8244  267.4865 C   0  0  0  0  0  0  0  0  0  0  0  0
   95.3850   49.0832  268.0126 N   0  0  0  0  0  0  0  0  0  0  0  0
   96.3430   48.1354  267.8658 C   0  0  0  0  0  0  0  0  0  0  0  0
   96.0897   46.9257  267.2216 C   0  0  0  0  0  0  0  0  0  0  0  0
   94.8705   46.6478  266.6904 N   0  0  0  0  0  0  0  0  0  0  0  0
   93.2613   51.0285  268.3807 C   0  0  0  0  0  0  0  0  0  0  0  0
   90.2520   47.9338  266.1399 N   0  0  0  0  0  0  0  0  0  0  0  0
   89.7015   47.1928  265.0832 C   0  0  0  0  0  0  0  0  0  0  0  0
   90.4532   46.9549  263.9208 C   0  0  0  0  0  0  0  0  0  0  0  0
   89.9543   46.3298  262.8373 N   0  0  0  0  0  0  0  0  0  0  0  0
   88.6785   45.8812  262.8956 C   0  0  0  0  0  0  0  0  0  0  0  0
   87.8678   46.0387  264.0101 C   0  0  0  0  0  0  0  0  0  0  0  0
   88.3733   46.7249  265.1240 C   0  0  0  0  0  0  0  0  0  0  0  0
   87.3145   46.9352  266.5561 S   0  0  0  0  0  0  0  0  0  0  0  0
   87.5376   48.2780  267.1026 O   0  0  0  0  0  0  0  0  0  0  0  0
   85.9614   46.5209  266.1752 O   0  0  0  0  0  0  0  0  0  0  0  0
   88.0033   45.6830  267.7810 C   0  0  0  0  0  0  0  0  0  0  0  0
   94.2676   51.9515  268.0760 C   0  0  0  0  0  0  0  0  0  0  0  0
   94.4607   53.0907  268.8507 C   0  0  0  0  0  0  0  0  0  0  0  0
   92.4286   51.2390  269.4665 C   0  0  0  0  0  0  0  0  0  0  0  0
   92.6104   52.3297  270.2980 C   0  0  0  0  0  0  0  0  0  0  0  0
   93.6343   53.2671  269.9747 C   0  0  0  0  0  0  0  0  0  0  0  0
   93.6567   54.5790  271.1456 S   0  0  0  0  0  0  0  0  0  0  0  0
   92.4470   53.7602  272.0760 C   0  0  0  0  0  0  0  0  0  0  0  0
   91.9259   52.6515  271.4883 C   0  0  0  0  0  0  0  0  0  0  0  0
   92.0631   54.2673  273.2652 N   0  0  0  0  0  0  0  0  0  0  0  0
   92.3938   46.3537  265.8434 H   0  0  0  0  0  0  0  0  0  0  0  0
   91.0044   50.1244  267.2850 H   0  0  0  0  0  0  0  0  0  0  0  0
   97.3310   48.3231  268.2594 H   0  0  0  0  0  0  0  0  0  0  0  0
   96.8796   46.1934  267.1429 H   0  0  0  0  0  0  0  0  0  0  0  0
   94.7000   45.7859  266.2129 H   0  0  0  0  0  0  0  0  0  0  0  0
   91.4799   47.2891  263.8947 H   0  0  0  0  0  0  0  0  0  0  0  0
   88.2719   45.3759  262.0320 H   0  0  0  0  0  0  0  0  0  0  0  0
   86.8643   45.6397  264.0199 H   0  0  0  0  0  0  0  0  0  0  0  0
   87.4214   45.7233  268.7136 H   0  0  0  0  0  0  0  0  0  0  0  0
   87.9356   44.6732  267.3500 H   0  0  0  0  0  0  0  0  0  0  0  0
   89.0558   45.9204  267.9951 H   0  0  0  0  0  0  0  0  0  0  0  0
   94.9066   51.7763  267.2231 H   0  0  0  0  0  0  0  0  0  0  0  0
   95.2201   53.8156  268.5973 H   0  0  0  0  0  0  0  0  0  0  0  0
   91.6272   50.5432  269.6669 H   0  0  0  0  0  0  0  0  0  0  0  0
   91.0932   52.0881  271.8827 H   0  0  0  0  0  0  0  0  0  0  0  0
   92.5730   55.1075  273.4501 H   0  0  0  0  0  0  0  0  0  0  0  0
   91.0842   54.4702  273.2406 H   0  0  0  0  0  0  0  0  0  0  0  0
  1  2  1  0  0  0  0
  1  5  2  0  0  0  0
  2  3  1  0  0  0  0
  2 12  2  3  0  0  0
  3  4  2  0  0  0  0
  4  6  1  0  0  0  0
  4 11  1  0  0  0  0
  5  6  1  0  0  0  0
  5 10  1  0  0  0  0
  6  7  2  0  0  0  0
  7  8  1  0  0  0  0
  8  9  2  0  0  0  0
  9 10  1  0  0  0  0
 11 23  2  0  0  0  0
 11 25  1  0  0  0  0
 12 13  1  0  0  0  0
 13 14  2  0  0  0  0
 13 18  1  0  0  0  0
 14 15  1  0  0  0  0
 15 16  2  0  0  0  0
 16 17  1  0  0  0  0
 17 18  2  0  0  0  0
 18 19  1  0  0  0  0
 19 20  2  0  0  0  0
 19 21  2  0  0  0  0
 19 22  1  0  0  0  0
 23 24  1  0  0  0  0
 24 27  2  0  0  0  0
 25 26  2  0  0  0  0
 26 27  1  0  0  0  0
 26 30  1  0  0  0  0
 27 28  1  0  0  0  0
 28 29  1  0  0  0  0
 29 30  2  0  0  0  0
 29 31  1  0  0  0  0
  1 32  1  0  0  0  0
  3 33  1  0  0  0  0
  8 34  1  0  0  0  0
  9 35  1  0  0  0  0
 10 36  1  0  0  0  0
 14 37  1  0  0  0  0
 16 38  1  0  0  0  0
 17 39  1  0  0  0  0
 22 40  1  0  0  0  0
 22 41  1  0  0  0  0
 22 42  1  0  0  0  0
 23 43  1  0  0  0  0
 24 44  1  0  0  0  0
 25 45  1  0  0  0  0
 30 46  1  0  0  0  0
 31 47  1  0  0  0  0
 31 48  1  0  0  0  0
M  END
> <ID>
68

> <IC50[uM]>
0.068

$$$$
68
  -OEChem-05192314313D
 Structure written by MMmdl.
 48 52  0     0  0  0  0  0  0999 V2000
   92.5906   47.2900  266.3444 C   0  0  0  0  0  0  0  0  0  0  0  0
   91.5700   48.2152  266.5159 C   0  0  0  0  0  0  0  0  0  0  0  0
   91.8167   49.4248  267.1546 C   0  0  0  0  0  0  0  0  0  0  0  0
   93.0889   49.7623  267.6340 C   0  0  0  0  0  0  0  0  0  0  0  0
   93.8920   47.5770  266.8285 C   0  0  0  0  0  0  0  0  0  0  0  0
   94.1480   48.8244  267.4865 C   0  0  0  0  0  0  0  0  0  0  0  0
   95.3850   49.0832  268.0126 N   0  0  0  0  0  0  0  0  0  0  0  0
   96.3430   48.1354  267.8658 C   0  0  0  0  0  0  0  0  0  0  0  0
   96.0897   46.9257  267.2216 C   0  0  0  0  0  0  0  0  0  0  0  0
   94.8705   46.6478  266.6904 N   0  0  0  0  0  0  0  0  0  0  0  0
   93.2613   51.0285  268.3807 C   0  0  0  0  0  0  0  0  0  0  0  0
   90.2520   47.9338  266.1399 N   0  0  0  0  0  0  0  0  0  0  0  0
   89.7015   47.1928  265.0832 C   0  0  0  0  0  0  0  0  0  0  0  0
   90.4532   46.9549  263.9208 C   0  0  0  0  0  0  0  0  0  0  0  0
   89.9543   46.3298  262.8373 N   0  0  0  0  0  0  0  0  0  0  0  0
   88.6785   45.8812  262.8956 C   0  0  0  0  0  0  0  0  0  0  0  0
   87.8678   46.0387  264.0101 C   0  0  0  0  0  0  0  0  0  0  0  0
   88.3733   46.7249  265.1240 C   0  0  0  0  0  0  0  0  0  0  0  0
   87.3145   46.9352  266.5561 S   0  0  0  0  0  0  0  0  0  0  0  0
   87.5376   48.2780  267.1026 O   0  0  0  0  0  0  0  0  0  0  0  0
   85.9614   46.5209  266.1752 O   0  0  0  0  0  0  0  0  0  0  0  0
   88.0033   45.6830  267.7810 C   0  0  0  0  0  0  0  0  0  0  0  0
   94.2676   51.9515  268.0760 C   0  0  0  0  0  0  0  0  0  0  0  0
   94.4607   53.0907  268.8507 C   0  0  0  0  0  0  0  0  0  0  0  0
   92.4286   51.2390  269.4665 C   0  0  0  0  0  0  0  0  0  0  0  0
   92.6104   52.3297  270.2980 C   0  0  0  0  0  0  0  0  0  0  0  0
   93.6343   53.2671  269.9747 C   0  0  0  0  0  0  0  0  0  0  0  0
   93.6567   54.5790  271.1456 S   0  0  0  0  0  0  0  0  0  0  0  0
   92.4470   53.7602  272.0760 C   0  0  0  0  0  0  0  0  0  0  0  0
   91.9259   52.6515  271.4883 C   0  0  0  0  0  0  0  0  0  0  0  0
   92.0631   54.2673  273.2652 N   0  0  0  0  0  0  0  0  0  0  0  0
   92.3938   46.3537  265.8434 H   0  0  0  0  0  0  0  0  0  0  0  0
   91.0044   50.1244  267.2850 H   0  0  0  0  0  0  0  0  0  0  0  0
   97.3310   48.3231  268.2594 H   0  0  0  0  0  0  0  0  0  0  0  0
   96.8796   46.1934  267.1429 H   0  0  0  0  0  0  0  0  0  0  0  0
   89.5669   48.3414  266.7437 H   0  0  0  0  0  0  0  0  0  0  0  0
   91.4799   47.2891  263.8947 H   0  0  0  0  0  0  0  0  0  0  0  0
   88.2719   45.3759  262.0320 H   0  0  0  0  0  0  0  0  0  0  0  0
   86.8643   45.6397  264.0199 H   0  0  0  0  0  0  0  0  0  0  0  0
   87.4214   45.7233  268.7136 H   0  0  0  0  0  0  0  0  0  0  0  0
   87.9356   44.6732  267.3500 H   0  0  0  0  0  0  0  0  0  0  0  0
   89.0558   45.9204  267.9951 H   0  0  0  0  0  0  0  0  0  0  0  0
   94.9066   51.7763  267.2231 H   0  0  0  0  0  0  0  0  0  0  0  0
   95.2201   53.8156  268.5973 H   0  0  0  0  0  0  0  0  0  0  0  0
   91.6272   50.5432  269.6669 H   0  0  0  0  0  0  0  0  0  0  0  0
   90.8670   52.8350  271.2537 H   0  0  0  0  0  0  0  0  0  0  0  0
   92.0054   51.8054  272.1867 H   0  0  0  0  0  0  0  0  0  0  0  0
   92.5514   55.1111  273.4879 H   0  0  0  0  0  0  0  0  0  0  0  0
  1  2  2  0  0  0  0
  1  5  1  0  0  0  0
  2  3  1  0  0  0  0
  2 12  1  0  0  0  0
  3  4  2  0  0  0  0
  4  6  1  0  0  0  0
  4 11  1  0  0  0  0
  5  6  2  0  0  0  0
  5 10  1  0  0  0  0
  6  7  1  0  0  0  0
  7  8  2  0  0  0  0
  8  9  1  0  0  0  0
  9 10  2  0  0  0  0
 11 23  2  0  0  0  0
 11 25  1  0  0  0  0
 12 13  1  0  0  0  0
 13 14  2  0  0  0  0
 13 18  1  0  0  0  0
 14 15  1  0  0  0  0
 15 16  2  0  0  0  0
 16 17  1  0  0  0  0
 17 18  2  0  0  0  0
 18 19  1  0  0  0  0
 19 20  2  0  0  0  0
 19 21  2  0  0  0  0
 19 22  1  0  0  0  0
 23 24  1  0  0  0  0
 24 27  2  0  0  0  0
 25 26  2  0  0  0  0
 26 27  1  0  0  0  0
 26 30  1  0  0  0  0
 27 28  1  0  0  0  0
 28 29  1  0  0  0  0
 29 30  1  0  0  0  0
 29 31  2  0  0  0  0
  1 32  1  0  0  0  0
  3 33  1  0  0  0  0
  8 34  1  0  0  0  0
  9 35  1  0  0  0  0
 12 36  1  0  0  0  0
 14 37  1  0  0  0  0
 16 38  1  0  0  0  0
 17 39  1  0  0  0  0
 22 40  1  0  0  0  0
 22 41  1  0  0  0  0
 22 42  1  0  0  0  0
 23 43  1  0  0  0  0
 24 44  1  0  0  0  0
 25 45  1  0  0  0  0
 30 46  1  0  0  0  0
 30 47  1  0  0  0  0
 31 48  1  0  0  0  0
M  END
> <ID>
68

> <IC50[uM]>
0.068

$$$$
68
  -OEChem-05192314313D
 Structure written by MMmdl.
 48 52  0     0  0  0  0  0  0999 V2000
   92.5906   47.2900  266.3444 C   0  0  0  0  0  0  0  0  0  0  0  0
   91.5700   48.2152  266.5159 C   0  0  0  0  0  0  0  0  0  0  0  0
   91.8167   49.4248  267.1546 C   0  0  0  0  0  0  0  0  0  0  0  0
   93.0889   49.7623  267.6340 C   0  0  0  0  0  0  0  0  0  0  0  0
   93.8920   47.5770  266.8285 C   0  0  0  0  0  0  0  0  0  0  0  0
   94.1480   48.8244  267.4865 C   0  0  0  0  0  0  0  0  0  0  0  0
   95.3850   49.0832  268.0126 N   0  0  0  0  0  0  0  0  0  0  0  0
   96.3430   48.1354  267.8658 C   0  0  0  0  0  0  0  0  0  0  0  0
   96.0897   46.9257  267.2216 C   0  0  0  0  0  0  0  0  0  0  0  0
   94.8705   46.6478  266.6904 N   0  0  0  0  0  0  0  0  0  0  0  0
   93.2613   51.0285  268.3807 C   0  0  0  0  0  0  0  0  0  0  0  0
   90.2520   47.9338  266.1399 N   0  0  0  0  0  0  0  0  0  0  0  0
   89.7015   47.1928  265.0832 C   0  0  0  0  0  0  0  0  0  0  0  0
   90.4532   46.9549  263.9208 C   0  0  0  0  0  0  0  0  0  0  0  0
   89.9543   46.3298  262.8373 N   0  0  0  0  0  0  0  0  0  0  0  0
   88.6785   45.8812  262.8956 C   0  0  0  0  0  0  0  0  0  0  0  0
   87.8678   46.0387  264.0101 C   0  0  0  0  0  0  0  0  0  0  0  0
   88.3733   46.7249  265.1240 C   0  0  0  0  0  0  0  0  0  0  0  0
   87.3145   46.9352  266.5561 S   0  0  0  0  0  0  0  0  0  0  0  0
   87.5376   48.2780  267.1026 O   0  0  0  0  0  0  0  0  0  0  0  0
   85.9614   46.5209  266.1752 O   0  0  0  0  0  0  0  0  0  0  0  0
   88.0033   45.6830  267.7810 C   0  0  0  0  0  0  0  0  0  0  0  0
   94.2676   51.9515  268.0760 C   0  0  0  0  0  0  0  0  0  0  0  0
   94.4607   53.0907  268.8507 C   0  0  0  0  0  0  0  0  0  0  0  0
   92.4286   51.2390  269.4665 C   0  0  0  0  0  0  0  0  0  0  0  0
   92.6104   52.3297  270.2980 C   0  0  0  0  0  0  0  0  0  0  0  0
   93.6343   53.2671  269.9747 C   0  0  0  0  0  0  0  0  0  0  0  0
   93.6567   54.5790  271.1456 S   0  0  0  0  0  0  0  0  0  0  0  0
   92.4470   53.7602  272.0760 C   0  0  0  0  0  0  0  0  0  0  0  0
   91.9259   52.6515  271.4883 C   0  0  0  0  0  0  0  0  0  0  0  0
   92.0631   54.2673  273.2652 N   0  0  0  0  0  0  0  0  0  0  0  0
   92.3938   46.3537  265.8434 H   0  0  0  0  0  0  0  0  0  0  0  0
   91.0044   50.1244  267.2850 H   0  0  0  0  0  0  0  0  0  0  0  0
   97.3310   48.3231  268.2594 H   0  0  0  0  0  0  0  0  0  0  0  0
   96.8796   46.1934  267.1429 H   0  0  0  0  0  0  0  0  0  0  0  0
   94.7000   45.7859  266.2129 H   0  0  0  0  0  0  0  0  0  0  0  0
   91.4799   47.2891  263.8947 H   0  0  0  0  0  0  0  0  0  0  0  0
   88.2719   45.3759  262.0320 H   0  0  0  0  0  0  0  0  0  0  0  0
   86.8643   45.6397  264.0199 H   0  0  0  0  0  0  0  0  0  0  0  0
   87.4214   45.7233  268.7136 H   0  0  0  0  0  0  0  0  0  0  0  0
   87.9356   44.6732  267.3500 H   0  0  0  0  0  0  0  0  0  0  0  0
   89.0558   45.9204  267.9951 H   0  0  0  0  0  0  0  0  0  0  0  0
   94.9066   51.7763  267.2231 H   0  0  0  0  0  0  0  0  0  0  0  0
   95.2201   53.8156  268.5973 H   0  0  0  0  0  0  0  0  0  0  0  0
   91.6272   50.5432  269.6669 H   0  0  0  0  0  0  0  0  0  0  0  0
   90.8670   52.8350  271.2537 H   0  0  0  0  0  0  0  0  0  0  0  0
   92.0054   51.8054  272.1867 H   0  0  0  0  0  0  0  0  0  0  0  0
   92.5514   55.1111  273.4879 H   0  0  0  0  0  0  0  0  0  0  0  0
  1  2  1  0  0  0  0
  1  5  2  0  0  0  0
  2  3  1  0  0  0  0
  2 12  2  3  0  0  0
  3  4  2  0  0  0  0
  4  6  1  0  0  0  0
  4 11  1  0  0  0  0
  5  6  1  0  0  0  0
  5 10  1  0  0  0  0
  6  7  2  0  0  0  0
  7  8  1  0  0  0  0
  8  9  2  0  0  0  0
  9 10  1  0  0  0  0
 11 23  2  0  0  0  0
 11 25  1  0  0  0  0
 12 13  1  0  0  0  0
 13 14  2  0  0  0  0
 13 18  1  0  0  0  0
 14 15  1  0  0  0  0
 15 16  2  0  0  0  0
 16 17  1  0  0  0  0
 17 18  2  0  0  0  0
 18 19  1  0  0  0  0
 19 20  2  0  0  0  0
 19 21  2  0  0  0  0
 19 22  1  0  0  0  0
 23 24  1  0  0  0  0
 24 27  2  0  0  0  0
 25 26  2  0  0  0  0
 26 27  1  0  0  0  0
 26 30  1  0  0  0  0
 27 28  1  0  0  0  0
 28 29  1  0  0  0  0
 29 30  1  0  0  0  0
 29 31  2  0  0  0  0
  1 32  1  0  0  0  0
  3 33  1  0  0  0  0
  8 34  1  0  0  0  0
  9 35  1  0  0  0  0
 10 36  1  0  0  0  0
 14 37  1  0  0  0  0
 16 38  1  0  0  0  0
 17 39  1  0  0  0  0
 22 40  1  0  0  0  0
 22 41  1  0  0  0  0
 22 42  1  0  0  0  0
 23 43  1  0  0  0  0
 24 44  1  0  0  0  0
 25 45  1  0  0  0  0
 30 46  1  0  0  0  0
 30 47  1  0  0  0  0
 31 48  1  0  0  0  0
M  END
> <ID>
68

> <IC50[uM]>
0.068

$$$$
68
  -OEChem-05192314313D
 Structure written by MMmdl.
 48 52  0     0  0  0  0  0  0999 V2000
   92.5906   47.2900  266.3444 C   0  0  0  0  0  0  0  0  0  0  0  0
   91.5700   48.2152  266.5159 C   0  0  0  0  0  0  0  0  0  0  0  0
   91.8167   49.4248  267.1546 C   0  0  0  0  0  0  0  0  0  0  0  0
   93.0889   49.7623  267.6340 C   0  0  0  0  0  0  0  0  0  0  0  0
   93.8920   47.5770  266.8285 C   0  0  0  0  0  0  0  0  0  0  0  0
   94.1480   48.8244  267.4865 C   0  0  0  0  0  0  0  0  0  0  0  0
   95.3850   49.0832  268.0126 N   0  0  0  0  0  0  0  0  0  0  0  0
   96.3430   48.1354  267.8658 C   0  0  0  0  0  0  0  0  0  0  0  0
   96.0897   46.9257  267.2216 C   0  0  0  0  0  0  0  0  0  0  0  0
   94.8705   46.6478  266.6904 N   0  0  0  0  0  0  0  0  0  0  0  0
   93.2613   51.0285  268.3807 C   0  0  0  0  0  0  0  0  0  0  0  0
   90.2520   47.9338  266.1399 N   0  0  0  0  0  0  0  0  0  0  0  0
   89.7015   47.1928  265.0832 C   0  0  0  0  0  0  0  0  0  0  0  0
   90.4532   46.9549  263.9208 C   0  0  0  0  0  0  0  0  0  0  0  0
   89.9543   46.3298  262.8373 N   0  0  0  0  0  0  0  0  0  0  0  0
   88.6785   45.8812  262.8956 C   0  0  0  0  0  0  0  0  0  0  0  0
   87.8678   46.0387  264.0101 C   0  0  0  0  0  0  0  0  0  0  0  0
   88.3733   46.7249  265.1240 C   0  0  0  0  0  0  0  0  0  0  0  0
   87.3145   46.9352  266.5561 S   0  0  0  0  0  0  0  0  0  0  0  0
   87.5376   48.2780  267.1026 O   0  0  0  0  0  0  0  0  0  0  0  0
   85.9614   46.5209  266.1752 O   0  0  0  0  0  0  0  0  0  0  0  0
   88.0033   45.6830  267.7810 C   0  0  0  0  0  0  0  0  0  0  0  0
   94.2676   51.9515  268.0760 C   0  0  0  0  0  0  0  0  0  0  0  0
   94.4607   53.0907  268.8507 C   0  0  0  0  0  0  0  0  0  0  0  0
   92.4286   51.2390  269.4665 C   0  0  0  0  0  0  0  0  0  0  0  0
   92.6104   52.3297  270.2980 C   0  0  0  0  0  0  0  0  0  0  0  0
   93.6343   53.2671  269.9747 C   0  0  0  0  0  0  0  0  0  0  0  0
   93.6567   54.5790  271.1456 S   0  0  0  0  0  0  0  0  0  0  0  0
   92.4470   53.7602  272.0760 C   0  0  0  0  0  0  0  0  0  0  0  0
   91.9259   52.6515  271.4883 C   0  0  0  0  0  0  0  0  0  0  0  0
   92.0631   54.2673  273.2652 N   0  0  0  0  0  0  0  0  0  0  0  0
   92.2651   46.3621  266.8373 H   0  0  0  0  0  0  0  0  0  0  0  0
   92.6846   47.1168  265.2622 H   0  0  0  0  0  0  0  0  0  0  0  0
   91.0044   50.1244  267.2850 H   0  0  0  0  0  0  0  0  0  0  0  0
   97.3310   48.3231  268.2594 H   0  0  0  0  0  0  0  0  0  0  0  0
   96.8796   46.1934  267.1429 H   0  0  0  0  0  0  0  0  0  0  0  0
   91.4799   47.2891  263.8947 H   0  0  0  0  0  0  0  0  0  0  0  0
   88.2719   45.3759  262.0320 H   0  0  0  0  0  0  0  0  0  0  0  0
   86.8643   45.6397  264.0199 H   0  0  0  0  0  0  0  0  0  0  0  0
   87.4214   45.7233  268.7136 H   0  0  0  0  0  0  0  0  0  0  0  0
   87.9356   44.6732  267.3500 H   0  0  0  0  0  0  0  0  0  0  0  0
   89.0558   45.9204  267.9951 H   0  0  0  0  0  0  0  0  0  0  0  0
   94.9066   51.7763  267.2231 H   0  0  0  0  0  0  0  0  0  0  0  0
   95.2201   53.8156  268.5973 H   0  0  0  0  0  0  0  0  0  0  0  0
   91.6272   50.5432  269.6669 H   0  0  0  0  0  0  0  0  0  0  0  0
   91.0932   52.0881  271.8827 H   0  0  0  0  0  0  0  0  0  0  0  0
   92.5730   55.1075  273.4501 H   0  0  0  0  0  0  0  0  0  0  0  0
   91.0842   54.4702  273.2406 H   0  0  0  0  0  0  0  0  0  0  0  0
  1  2  1  0  0  0  0
  1  5  1  0  0  0  0
  2  3  1  0  0  0  0
  2 12  2  3  0  0  0
  3  4  2  0  0  0  0
  4  6  1  0  0  0  0
  4 11  1  0  0  0  0
  5  6  2  0  0  0  0
  5 10  1  0  0  0  0
  6  7  1  0  0  0  0
  7  8  2  0  0  0  0
  8  9  1  0  0  0  0
  9 10  2  0  0  0  0
 11 23  2  0  0  0  0
 11 25  1  0  0  0  0
 12 13  1  0  0  0  0
 13 14  2  0  0  0  0
 13 18  1  0  0  0  0
 14 15  1  0  0  0  0
 15 16  2  0  0  0  0
 16 17  1  0  0  0  0
 17 18  2  0  0  0  0
 18 19  1  0  0  0  0
 19 20  2  0  0  0  0
 19 21  2  0  0  0  0
 19 22  1  0  0  0  0
 23 24  1  0  0  0  0
 24 27  2  0  0  0  0
 25 26  2  0  0  0  0
 26 27  1  0  0  0  0
 26 30  1  0  0  0  0
 27 28  1  0  0  0  0
 28 29  1  0  0  0  0
 29 30  2  0  0  0  0
 29 31  1  0  0  0  0
  1 32  1  0  0  0  0
  1 33  1  0  0  0  0
  3 34  1  0  0  0  0
  8 35  1  0  0  0  0
  9 36  1  0  0  0  0
 14 37  1  0  0  0  0
 16 38  1  0  0  0  0
 17 39  1  0  0  0  0
 22 40  1  0  0  0  0
 22 41  1  0  0  0  0
 22 42  1  0  0  0  0
 23 43  1  0  0  0  0
 24 44  1  0  0  0  0
 25 45  1  0  0  0  0
 30 46  1  0  0  0  0
 31 47  1  0  0  0  0
 31 48  1  0  0  0  0
M  END
> <ID>
68

> <IC50[uM]>
0.068

$$$$
68
  -OEChem-05192314313D
 Structure written by MMmdl.
 48 52  0     0  0  0  0  0  0999 V2000
   92.5906   47.2900  266.3444 C   0  0  0  0  0  0  0  0  0  0  0  0
   91.5700   48.2152  266.5159 C   0  0  0  0  0  0  0  0  0  0  0  0
   91.8167   49.4248  267.1546 C   0  0  0  0  0  0  0  0  0  0  0  0
   93.0889   49.7623  267.6340 C   0  0  0  0  0  0  0  0  0  0  0  0
   93.8920   47.5770  266.8285 C   0  0  0  0  0  0  0  0  0  0  0  0
   94.1480   48.8244  267.4865 C   0  0  0  0  0  0  0  0  0  0  0  0
   95.3850   49.0832  268.0126 N   0  0  0  0  0  0  0  0  0  0  0  0
   96.3430   48.1354  267.8658 C   0  0  0  0  0  0  0  0  0  0  0  0
   96.0897   46.9257  267.2216 C   0  0  0  0  0  0  0  0  0  0  0  0
   94.8705   46.6478  266.6904 N   0  0  0  0  0  0  0  0  0  0  0  0
   93.2613   51.0285  268.3807 C   0  0  0  0  0  0  0  0  0  0  0  0
   90.2520   47.9338  266.1399 N   0  0  0  0  0  0  0  0  0  0  0  0
   89.7015   47.1928  265.0832 C   0  0  0  0  0  0  0  0  0  0  0  0
   90.4532   46.9549  263.9208 C   0  0  0  0  0  0  0  0  0  0  0  0
   89.9543   46.3298  262.8373 N   0  0  0  0  0  0  0  0  0  0  0  0
   88.6785   45.8812  262.8956 C   0  0  0  0  0  0  0  0  0  0  0  0
   87.8678   46.0387  264.0101 C   0  0  0  0  0  0  0  0  0  0  0  0
   88.3733   46.7249  265.1240 C   0  0  0  0  0  0  0  0  0  0  0  0
   87.3145   46.9352  266.5561 S   0  0  0  0  0  0  0  0  0  0  0  0
   87.5376   48.2780  267.1026 O   0  0  0  0  0  0  0  0  0  0  0  0
   85.9614   46.5209  266.1752 O   0  0  0  0  0  0  0  0  0  0  0  0
   88.0033   45.6830  267.7810 C   0  0  0  0  0  0  0  0  0  0  0  0
   94.2676   51.9515  268.0760 C   0  0  0  0  0  0  0  0  0  0  0  0
   94.4607   53.0907  268.8507 C   0  0  0  0  0  0  0  0  0  0  0  0
   92.4286   51.2390  269.4665 C   0  0  0  0  0  0  0  0  0  0  0  0
   92.6104   52.3297  270.2980 C   0  0  0  0  0  0  0  0  0  0  0  0
   93.6343   53.2671  269.9747 C   0  0  0  0  0  0  0  0  0  0  0  0
   93.6567   54.5790  271.1456 S   0  0  0  0  0  0  0  0  0  0  0  0
   92.4470   53.7602  272.0760 C   0  0  0  0  0  0  0  0  0  0  0  0
   91.9259   52.6515  271.4883 C   0  0  0  0  0  0  0  0  0  0  0  0
   92.0631   54.2673  273.2652 N   0  0  0  0  0  0  0  0  0  0  0  0
   92.3938   46.3537  265.8434 H   0  0  0  0  0  0  0  0  0  0  0  0
   91.5369   50.2134  266.4406 H   0  0  0  0  0  0  0  0  0  0  0  0
   91.1411   49.4591  268.0220 H   0  0  0  0  0  0  0  0  0  0  0  0
   97.3310   48.3231  268.2594 H   0  0  0  0  0  0  0  0  0  0  0  0
   96.8796   46.1934  267.1429 H   0  0  0  0  0  0  0  0  0  0  0  0
   91.4799   47.2891  263.8947 H   0  0  0  0  0  0  0  0  0  0  0  0
   88.2719   45.3759  262.0320 H   0  0  0  0  0  0  0  0  0  0  0  0
   86.8643   45.6397  264.0199 H   0  0  0  0  0  0  0  0  0  0  0  0
   87.4214   45.7233  268.7136 H   0  0  0  0  0  0  0  0  0  0  0  0
   87.9356   44.6732  267.3500 H   0  0  0  0  0  0  0  0  0  0  0  0
   89.0558   45.9204  267.9951 H   0  0  0  0  0  0  0  0  0  0  0  0
   94.9066   51.7763  267.2231 H   0  0  0  0  0  0  0  0  0  0  0  0
   95.2201   53.8156  268.5973 H   0  0  0  0  0  0  0  0  0  0  0  0
   91.6272   50.5432  269.6669 H   0  0  0  0  0  0  0  0  0  0  0  0
   91.0932   52.0881  271.8827 H   0  0  0  0  0  0  0  0  0  0  0  0
   92.5730   55.1075  273.4501 H   0  0  0  0  0  0  0  0  0  0  0  0
   91.0842   54.4702  273.2406 H   0  0  0  0  0  0  0  0  0  0  0  0
  1  2  1  0  0  0  0
  1  5  2  0  0  0  0
  2  3  1  0  0  0  0
  2 12  2  3  0  0  0
  3  4  1  0  0  0  0
  4  6  2  0  0  0  0
  4 11  1  0  0  0  0
  5  6  1  0  0  0  0
  5 10  1  0  0  0  0
  6  7  1  0  0  0  0
  7  8  2  0  0  0  0
  8  9  1  0  0  0  0
  9 10  2  0  0  0  0
 11 23  2  0  0  0  0
 11 25  1  0  0  0  0
 12 13  1  0  0  0  0
 13 14  2  0  0  0  0
 13 18  1  0  0  0  0
 14 15  1  0  0  0  0
 15 16  2  0  0  0  0
 16 17  1  0  0  0  0
 17 18  2  0  0  0  0
 18 19  1  0  0  0  0
 19 20  2  0  0  0  0
 19 21  2  0  0  0  0
 19 22  1  0  0  0  0
 23 24  1  0  0  0  0
 24 27  2  0  0  0  0
 25 26  2  0  0  0  0
 26 27  1  0  0  0  0
 26 30  1  0  0  0  0
 27 28  1  0  0  0  0
 28 29  1  0  0  0  0
 29 30  2  0  0  0  0
 29 31  1  0  0  0  0
  1 32  1  0  0  0  0
  3 33  1  0  0  0  0
  3 34  1  0  0  0  0
  8 35  1  0  0  0  0
  9 36  1  0  0  0  0
 14 37  1  0  0  0  0
 16 38  1  0  0  0  0
 17 39  1  0  0  0  0
 22 40  1  0  0  0  0
 22 41  1  0  0  0  0
 22 42  1  0  0  0  0
 23 43  1  0  0  0  0
 24 44  1  0  0  0  0
 25 45  1  0  0  0  0
 30 46  1  0  0  0  0
 31 47  1  0  0  0  0
 31 48  1  0  0  0  0
M  END
> <ID>
68

> <IC50[uM]>
0.068

$$$$
68
  -OEChem-05192314313D
 Structure written by MMmdl.
 48 52  0     1  0  0  0  0  0999 V2000
   92.5906   47.2900  266.3444 C   0  0  0  0  0  0  0  0  0  0  0  0
   91.5700   48.2152  266.5159 C   0  0  0  0  0  0  0  0  0  0  0  0
   91.8167   49.4248  267.1546 C   0  0  0  0  0  0  0  0  0  0  0  0
   93.0889   49.7623  267.6340 C   0  0  0  0  0  0  0  0  0  0  0  0
   93.8920   47.5770  266.8285 C   0  0  0  0  0  0  0  0  0  0  0  0
   94.1480   48.8244  267.4865 C   0  0  0  0  0  0  0  0  0  0  0  0
   95.3850   49.0832  268.0126 N   0  0  0  0  0  0  0  0  0  0  0  0
   96.3430   48.1354  267.8658 C   0  0  0  0  0  0  0  0  0  0  0  0
   96.0897   46.9257  267.2216 C   0  0  0  0  0  0  0  0  0  0  0  0
   94.8705   46.6478  266.6904 N   0  0  0  0  0  0  0  0  0  0  0  0
   93.2613   51.0285  268.3807 C   0  0  0  0  0  0  0  0  0  0  0  0
   90.2520   47.9338  266.1399 N   0  0  0  0  0  0  0  0  0  0  0  0
   89.7015   47.1928  265.0832 C   0  0  0  0  0  0  0  0  0  0  0  0
   90.4532   46.9549  263.9208 C   0  0  0  0  0  0  0  0  0  0  0  0
   89.9543   46.3298  262.8373 N   0  0  0  0  0  0  0  0  0  0  0  0
   88.6785   45.8812  262.8956 C   0  0  0  0  0  0  0  0  0  0  0  0
   87.8678   46.0387  264.0101 C   0  0  0  0  0  0  0  0  0  0  0  0
   88.3733   46.7249  265.1240 C   0  0  3  0  0  0  0  0  0  0  0  0
   87.3145   46.9352  266.5561 S   0  0  0  0  0  0  0  0  0  0  0  0
   87.5376   48.2780  267.1026 O   0  0  0  0  0  0  0  0  0  0  0  0
   85.9614   46.5209  266.1752 O   0  0  0  0  0  0  0  0  0  0  0  0
   88.0033   45.6830  267.7810 C   0  0  0  0  0  0  0  0  0  0  0  0
   94.2676   51.9515  268.0760 C   0  0  0  0  0  0  0  0  0  0  0  0
   94.4607   53.0907  268.8507 C   0  0  0  0  0  0  0  0  0  0  0  0
   92.4286   51.2390  269.4665 C   0  0  0  0  0  0  0  0  0  0  0  0
   92.6104   52.3297  270.2980 C   0  0  0  0  0  0  0  0  0  0  0  0
   93.6343   53.2671  269.9747 C   0  0  0  0  0  0  0  0  0  0  0  0
   93.6567   54.5790  271.1456 S   0  0  0  0  0  0  0  0  0  0  0  0
   92.4470   53.7602  272.0760 C   0  0  0  0  0  0  0  0  0  0  0  0
   91.9259   52.6515  271.4883 C   0  0  0  0  0  0  0  0  0  0  0  0
   92.0631   54.2673  273.2652 N   0  0  0  0  0  0  0  0  0  0  0  0
   92.3938   46.3537  265.8434 H   0  0  0  0  0  0  0  0  0  0  0  0
   91.0044   50.1244  267.2850 H   0  0  0  0  0  0  0  0  0  0  0  0
   97.3310   48.3231  268.2594 H   0  0  0  0  0  0  0  0  0  0  0  0
   96.8796   46.1934  267.1429 H   0  0  0  0  0  0  0  0  0  0  0  0
   91.4799   47.2891  263.8947 H   0  0  0  0  0  0  0  0  0  0  0  0
   88.2719   45.3759  262.0320 H   0  0  0  0  0  0  0  0  0  0  0  0
   86.8643   45.6397  264.0199 H   0  0  0  0  0  0  0  0  0  0  0  0
   88.0150   47.6790  264.7101 H   0  0  0  0  0  0  0  0  0  0  0  0
   87.4214   45.7233  268.7136 H   0  0  0  0  0  0  0  0  0  0  0  0
   87.9356   44.6732  267.3500 H   0  0  0  0  0  0  0  0  0  0  0  0
   89.0558   45.9204  267.9951 H   0  0  0  0  0  0  0  0  0  0  0  0
   94.9066   51.7763  267.2231 H   0  0  0  0  0  0  0  0  0  0  0  0
   95.2201   53.8156  268.5973 H   0  0  0  0  0  0  0  0  0  0  0  0
   91.6272   50.5432  269.6669 H   0  0  0  0  0  0  0  0  0  0  0  0
   91.0932   52.0881  271.8827 H   0  0  0  0  0  0  0  0  0  0  0  0
   92.5730   55.1075  273.4501 H   0  0  0  0  0  0  0  0  0  0  0  0
   91.0842   54.4702  273.2406 H   0  0  0  0  0  0  0  0  0  0  0  0
  1  2  2  0  0  0  0
  1  5  1  0  0  0  0
  2  3  1  0  0  0  0
  2 12  1  0  0  0  0
  3  4  2  0  0  0  0
  4  6  1  0  0  0  0
  4 11  1  0  0  0  0
  5  6  2  0  0  0  0
  5 10  1  0  0  0  0
  6  7  1  0  0  0  0
  7  8  2  0  0  0  0
  8  9  1  0  0  0  0
  9 10  2  0  0  0  0
 11 23  2  0  0  0  0
 11 25  1  0  0  0  0
 12 13  2  0  0  0  0
 13 14  1  0  0  0  0
 13 18  1  0  0  0  0
 14 15  2  0  0  0  0
 15 16  1  0  0  0  0
 16 17  2  0  0  0  0
 17 18  1  0  0  0  0
 18 19  1  0  0  0  0
 19 20  2  0  0  0  0
 19 21  2  0  0  0  0
 19 22  1  0  0  0  0
 23 24  1  0  0  0  0
 24 27  2  0  0  0  0
 25 26  2  0  0  0  0
 26 27  1  0  0  0  0
 26 30  1  0  0  0  0
 27 28  1  0  0  0  0
 28 29  1  0  0  0  0
 29 30  2  0  0  0  0
 29 31  1  0  0  0  0
  1 32  1  0  0  0  0
  3 33  1  0  0  0  0
  8 34  1  0  0  0  0
  9 35  1  0  0  0  0
 14 36  1  0  0  0  0
 16 37  1  0  0  0  0
 17 38  1  0  0  0  0
 18 39  1  0  0  0  0
 22 40  1  0  0  0  0
 22 41  1  0  0  0  0
 22 42  1  0  0  0  0
 23 43  1  0  0  0  0
 24 44  1  0  0  0  0
 25 45  1  0  0  0  0
 30 46  1  0  0  0  0
 31 47  1  0  0  0  0
 31 48  1  0  0  0  0
M  END
> <ID>
68

> <IC50[uM]>
0.068

$$$$
68
  -OEChem-05192314313D
 Structure written by MMmdl.
 48 52  0     0  0  0  0  0  0999 V2000
   92.5906   47.2900  266.3444 C   0  0  0  0  0  0  0  0  0  0  0  0
   91.5700   48.2152  266.5159 C   0  0  0  0  0  0  0  0  0  0  0  0
   91.8167   49.4248  267.1546 C   0  0  0  0  0  0  0  0  0  0  0  0
   93.0889   49.7623  267.6340 C   0  0  0  0  0  0  0  0  0  0  0  0
   93.8920   47.5770  266.8285 C   0  0  0  0  0  0  0  0  0  0  0  0
   94.1480   48.8244  267.4865 C   0  0  0  0  0  0  0  0  0  0  0  0
   95.3850   49.0832  268.0126 N   0  0  0  0  0  0  0  0  0  0  0  0
   96.3430   48.1354  267.8658 C   0  0  0  0  0  0  0  0  0  0  0  0
   96.0897   46.9257  267.2216 C   0  0  0  0  0  0  0  0  0  0  0  0
   94.8705   46.6478  266.6904 N   0  0  0  0  0  0  0  0  0  0  0  0
   93.2613   51.0285  268.3807 C   0  0  0  0  0  0  0  0  0  0  0  0
   90.2520   47.9338  266.1399 N   0  0  0  0  0  0  0  0  0  0  0  0
   89.7015   47.1928  265.0832 C   0  0  0  0  0  0  0  0  0  0  0  0
   90.4532   46.9549  263.9208 C   0  0  0  0  0  0  0  0  0  0  0  0
   89.9543   46.3298  262.8373 N   0  0  0  0  0  0  0  0  0  0  0  0
   88.6785   45.8812  262.8956 C   0  0  0  0  0  0  0  0  0  0  0  0
   87.8678   46.0387  264.0101 C   0  0  0  0  0  0  0  0  0  0  0  0
   88.3733   46.7249  265.1240 C   0  0  0  0  0  0  0  0  0  0  0  0
   87.3145   46.9352  266.5561 S   0  0  0  0  0  0  0  0  0  0  0  0
   87.5376   48.2780  267.1026 O   0  0  0  0  0  0  0  0  0  0  0  0
   85.9614   46.5209  266.1752 O   0  0  0  0  0  0  0  0  0  0  0  0
   88.0033   45.6830  267.7810 C   0  0  0  0  0  0  0  0  0  0  0  0
   94.2676   51.9515  268.0760 C   0  0  0  0  0  0  0  0  0  0  0  0
   94.4607   53.0907  268.8507 C   0  0  0  0  0  0  0  0  0  0  0  0
   92.4286   51.2390  269.4665 C   0  0  0  0  0  0  0  0  0  0  0  0
   92.6104   52.3297  270.2980 C   0  0  0  0  0  0  0  0  0  0  0  0
   93.6343   53.2671  269.9747 C   0  0  0  0  0  0  0  0  0  0  0  0
   93.6567   54.5790  271.1456 S   0  0  0  0  0  0  0  0  0  0  0  0
   92.4470   53.7602  272.0760 C   0  0  0  0  0  0  0  0  0  0  0  0
   91.9259   52.6515  271.4883 C   0  0  0  0  0  0  0  0  0  0  0  0
   92.0631   54.2673  273.2652 N   0  0  0  0  0  0  0  0  0  0  0  0
   92.3938   46.3537  265.8434 H   0  0  0  0  0  0  0  0  0  0  0  0
   91.0044   50.1244  267.2850 H   0  0  0  0  0  0  0  0  0  0  0  0
   97.3310   48.3231  268.2594 H   0  0  0  0  0  0  0  0  0  0  0  0
   96.8796   46.1934  267.1429 H   0  0  0  0  0  0  0  0  0  0  0  0
   91.4799   47.2891  263.8947 H   0  0  0  0  0  0  0  0  0  0  0  0
   88.1483   46.3700  262.0650 H   0  0  0  0  0  0  0  0  0  0  0  0
   88.7305   44.7981  262.7106 H   0  0  0  0  0  0  0  0  0  0  0  0
   86.8643   45.6397  264.0199 H   0  0  0  0  0  0  0  0  0  0  0  0
   87.4214   45.7233  268.7136 H   0  0  0  0  0  0  0  0  0  0  0  0
   87.9356   44.6732  267.3500 H   0  0  0  0  0  0  0  0  0  0  0  0
   89.0558   45.9204  267.9951 H   0  0  0  0  0  0  0  0  0  0  0  0
   94.9066   51.7763  267.2231 H   0  0  0  0  0  0  0  0  0  0  0  0
   95.2201   53.8156  268.5973 H   0  0  0  0  0  0  0  0  0  0  0  0
   91.6272   50.5432  269.6669 H   0  0  0  0  0  0  0  0  0  0  0  0
   91.0932   52.0881  271.8827 H   0  0  0  0  0  0  0  0  0  0  0  0
   92.5730   55.1075  273.4501 H   0  0  0  0  0  0  0  0  0  0  0  0
   91.0842   54.4702  273.2406 H   0  0  0  0  0  0  0  0  0  0  0  0
  1  2  2  0  0  0  0
  1  5  1  0  0  0  0
  2  3  1  0  0  0  0
  2 12  1  0  0  0  0
  3  4  2  0  0  0  0
  4  6  1  0  0  0  0
  4 11  1  0  0  0  0
  5  6  2  0  0  0  0
  5 10  1  0  0  0  0
  6  7  1  0  0  0  0
  7  8  2  0  0  0  0
  8  9  1  0  0  0  0
  9 10  2  0  0  0  0
 11 23  2  0  0  0  0
 11 25  1  0  0  0  0
 12 13  2  0  0  0  0
 13 14  1  0  0  0  0
 13 18  1  0  0  0  0
 14 15  2  0  0  0  0
 15 16  1  0  0  0  0
 16 17  1  0  0  0  0
 17 18  2  0  0  0  0
 18 19  1  0  0  0  0
 19 20  2  0  0  0  0
 19 21  2  0  0  0  0
 19 22  1  0  0  0  0
 23 24  1  0  0  0  0
 24 27  2  0  0  0  0
 25 26  2  0  0  0  0
 26 27  1  0  0  0  0
 26 30  1  0  0  0  0
 27 28  1  0  0  0  0
 28 29  1  0  0  0  0
 29 30  2  0  0  0  0
 29 31  1  0  0  0  0
  1 32  1  0  0  0  0
  3 33  1  0  0  0  0
  8 34  1  0  0  0  0
  9 35  1  0  0  0  0
 14 36  1  0  0  0  0
 16 37  1  0  0  0  0
 16 38  1  0  0  0  0
 17 39  1  0  0  0  0
 22 40  1  0  0  0  0
 22 41  1  0  0  0  0
 22 42  1  0  0  0  0
 23 43  1  0  0  0  0
 24 44  1  0  0  0  0
 25 45  1  0  0  0  0
 30 46  1  0  0  0  0
 31 47  1  0  0  0  0
 31 48  1  0  0  0  0
M  END
> <ID>
68

> <IC50[uM]>
0.068

$$$$
68
  -OEChem-05192314313D
 Structure written by MMmdl.
 48 52  0     0  0  0  0  0  0999 V2000
   92.5906   47.2900  266.3444 C   0  0  0  0  0  0  0  0  0  0  0  0
   91.5700   48.2152  266.5159 C   0  0  0  0  0  0  0  0  0  0  0  0
   91.8167   49.4248  267.1546 C   0  0  0  0  0  0  0  0  0  0  0  0
   93.0889   49.7623  267.6340 C   0  0  0  0  0  0  0  0  0  0  0  0
   93.8920   47.5770  266.8285 C   0  0  0  0  0  0  0  0  0  0  0  0
   94.1480   48.8244  267.4865 C   0  0  0  0  0  0  0  0  0  0  0  0
   95.3850   49.0832  268.0126 N   0  0  0  0  0  0  0  0  0  0  0  0
   96.3430   48.1354  267.8658 C   0  0  0  0  0  0  0  0  0  0  0  0
   96.0897   46.9257  267.2216 C   0  0  0  0  0  0  0  0  0  0  0  0
   94.8705   46.6478  266.6904 N   0  0  0  0  0  0  0  0  0  0  0  0
   93.2613   51.0285  268.3807 C   0  0  0  0  0  0  0  0  0  0  0  0
   90.2520   47.9338  266.1399 N   0  0  0  0  0  0  0  0  0  0  0  0
   89.7015   47.1928  265.0832 C   0  0  0  0  0  0  0  0  0  0  0  0
   90.4532   46.9549  263.9208 C   0  0  0  0  0  0  0  0  0  0  0  0
   89.9543   46.3298  262.8373 N   0  0  0  0  0  0  0  0  0  0  0  0
   88.6785   45.8812  262.8956 C   0  0  0  0  0  0  0  0  0  0  0  0
   87.8678   46.0387  264.0101 C   0  0  0  0  0  0  0  0  0  0  0  0
   88.3733   46.7249  265.1240 C   0  0  0  0  0  0  0  0  0  0  0  0
   87.3145   46.9352  266.5561 S   0  0  0  0  0  0  0  0  0  0  0  0
   87.5376   48.2780  267.1026 O   0  0  0  0  0  0  0  0  0  0  0  0
   85.9614   46.5209  266.1752 O   0  0  0  0  0  0  0  0  0  0  0  0
   88.0033   45.6830  267.7810 C   0  0  0  0  0  0  0  0  0  0  0  0
   94.2676   51.9515  268.0760 C   0  0  0  0  0  0  0  0  0  0  0  0
   94.4607   53.0907  268.8507 C   0  0  0  0  0  0  0  0  0  0  0  0
   92.4286   51.2390  269.4665 C   0  0  0  0  0  0  0  0  0  0  0  0
   92.6104   52.3297  270.2980 C   0  0  0  0  0  0  0  0  0  0  0  0
   93.6343   53.2671  269.9747 C   0  0  0  0  0  0  0  0  0  0  0  0
   93.6567   54.5790  271.1456 S   0  0  0  0  0  0  0  0  0  0  0  0
   92.4470   53.7602  272.0760 C   0  0  0  0  0  0  0  0  0  0  0  0
   91.9259   52.6515  271.4883 C   0  0  0  0  0  0  0  0  0  0  0  0
   92.0631   54.2673  273.2652 N   0  0  0  0  0  0  0  0  0  0  0  0
   92.3938   46.3537  265.8434 H   0  0  0  0  0  0  0  0  0  0  0  0
   91.0044   50.1244  267.2850 H   0  0  0  0  0  0  0  0  0  0  0  0
   97.3310   48.3231  268.2594 H   0  0  0  0  0  0  0  0  0  0  0  0
   96.8796   46.1934  267.1429 H   0  0  0  0  0  0  0  0  0  0  0  0
   90.7912   47.9418  263.5718 H   0  0  0  0  0  0  0  0  0  0  0  0
   91.3227   46.3610  264.2391 H   0  0  0  0  0  0  0  0  0  0  0  0
   88.2719   45.3759  262.0320 H   0  0  0  0  0  0  0  0  0  0  0  0
   86.8643   45.6397  264.0199 H   0  0  0  0  0  0  0  0  0  0  0  0
   87.4214   45.7233  268.7136 H   0  0  0  0  0  0  0  0  0  0  0  0
   87.9356   44.6732  267.3500 H   0  0  0  0  0  0  0  0  0  0  0  0
   89.0558   45.9204  267.9951 H   0  0  0  0  0  0  0  0  0  0  0  0
   94.9066   51.7763  267.2231 H   0  0  0  0  0  0  0  0  0  0  0  0
   95.2201   53.8156  268.5973 H   0  0  0  0  0  0  0  0  0  0  0  0
   91.6272   50.5432  269.6669 H   0  0  0  0  0  0  0  0  0  0  0  0
   91.0932   52.0881  271.8827 H   0  0  0  0  0  0  0  0  0  0  0  0
   92.5730   55.1075  273.4501 H   0  0  0  0  0  0  0  0  0  0  0  0
   91.0842   54.4702  273.2406 H   0  0  0  0  0  0  0  0  0  0  0  0
  1  2  2  0  0  0  0
  1  5  1  0  0  0  0
  2  3  1  0  0  0  0
  2 12  1  0  0  0  0
  3  4  2  0  0  0  0
  4  6  1  0  0  0  0
  4 11  1  0  0  0  0
  5  6  2  0  0  0  0
  5 10  1  0  0  0  0
  6  7  1  0  0  0  0
  7  8  2  0  0  0  0
  8  9  1  0  0  0  0
  9 10  2  0  0  0  0
 11 23  2  0  0  0  0
 11 25  1  0  0  0  0
 12 13  2  0  0  0  0
 13 14  1  0  0  0  0
 13 18  1  0  0  0  0
 14 15  1  0  0  0  0
 15 16  2  0  0  0  0
 16 17  1  0  0  0  0
 17 18  2  0  0  0  0
 18 19  1  0  0  0  0
 19 20  2  0  0  0  0
 19 21  2  0  0  0  0
 19 22  1  0  0  0  0
 23 24  1  0  0  0  0
 24 27  2  0  0  0  0
 25 26  2  0  0  0  0
 26 27  1  0  0  0  0
 26 30  1  0  0  0  0
 27 28  1  0  0  0  0
 28 29  1  0  0  0  0
 29 30  2  0  0  0  0
 29 31  1  0  0  0  0
  1 32  1  0  0  0  0
  3 33  1  0  0  0  0
  8 34  1  0  0  0  0
  9 35  1  0  0  0  0
 14 36  1  0  0  0  0
 14 37  1  0  0  0  0
 16 38  1  0  0  0  0
 17 39  1  0  0  0  0
 22 40  1  0  0  0  0
 22 41  1  0  0  0  0
 22 42  1  0  0  0  0
 23 43  1  0  0  0  0
 24 44  1  0  0  0  0
 25 45  1  0  0  0  0
 30 46  1  0  0  0  0
 31 47  1  0  0  0  0
 31 48  1  0  0  0  0
M  END
> <ID>
68

> <IC50[uM]>
0.068

$$$$
68
  -OEChem-05192314313D
 Structure written by MMmdl.
 48 52  0     0  0  0  0  0  0999 V2000
   92.5906   47.2900  266.3444 C   0  0  0  0  0  0  0  0  0  0  0  0
   91.5700   48.2152  266.5159 C   0  0  0  0  0  0  0  0  0  0  0  0
   91.8167   49.4248  267.1546 C   0  0  0  0  0  0  0  0  0  0  0  0
   93.0889   49.7623  267.6340 C   0  0  0  0  0  0  0  0  0  0  0  0
   93.8920   47.5770  266.8285 C   0  0  0  0  0  0  0  0  0  0  0  0
   94.1480   48.8244  267.4865 C   0  0  0  0  0  0  0  0  0  0  0  0
   95.3850   49.0832  268.0126 N   0  0  0  0  0  0  0  0  0  0  0  0
   96.3430   48.1354  267.8658 C   0  0  0  0  0  0  0  0  0  0  0  0
   96.0897   46.9257  267.2216 C   0  0  0  0  0  0  0  0  0  0  0  0
   94.8705   46.6478  266.6904 N   0  0  0  0  0  0  0  0  0  0  0  0
   93.2613   51.0285  268.3807 C   0  0  0  0  0  0  0  0  0  0  0  0
   90.2520   47.9338  266.1399 N   0  0  0  0  0  0  0  0  0  0  0  0
   89.7015   47.1928  265.0832 C   0  0  0  0  0  0  0  0  0  0  0  0
   90.4532   46.9549  263.9208 C   0  0  0  0  0  0  0  0  0  0  0  0
   89.9543   46.3298  262.8373 N   0  0  0  0  0  0  0  0  0  0  0  0
   88.6785   45.8812  262.8956 C   0  0  0  0  0  0  0  0  0  0  0  0
   87.8678   46.0387  264.0101 C   0  0  0  0  0  0  0  0  0  0  0  0
   88.3733   46.7249  265.1240 C   0  0  0  0  0  0  0  0  0  0  0  0
   87.3145   46.9352  266.5561 S   0  0  0  0  0  0  0  0  0  0  0  0
   87.5376   48.2780  267.1026 O   0  0  0  0  0  0  0  0  0  0  0  0
   85.9614   46.5209  266.1752 O   0  0  0  0  0  0  0  0  0  0  0  0
   88.0033   45.6830  267.7810 C   0  0  0  0  0  0  0  0  0  0  0  0
   94.2676   51.9515  268.0760 C   0  0  0  0  0  0  0  0  0  0  0  0
   94.4607   53.0907  268.8507 C   0  0  0  0  0  0  0  0  0  0  0  0
   92.4286   51.2390  269.4665 C   0  0  0  0  0  0  0  0  0  0  0  0
   92.6104   52.3297  270.2980 C   0  0  0  0  0  0  0  0  0  0  0  0
   93.6343   53.2671  269.9747 C   0  0  0  0  0  0  0  0  0  0  0  0
   93.6567   54.5790  271.1456 S   0  0  0  0  0  0  0  0  0  0  0  0
   92.4470   53.7602  272.0760 C   0  0  0  0  0  0  0  0  0  0  0  0
   91.9259   52.6515  271.4883 C   0  0  0  0  0  0  0  0  0  0  0  0
   92.0631   54.2673  273.2652 N   0  0  0  0  0  0  0  0  0  0  0  0
   92.2651   46.3621  266.8373 H   0  0  0  0  0  0  0  0  0  0  0  0
   92.6846   47.1168  265.2622 H   0  0  0  0  0  0  0  0  0  0  0  0
   91.0044   50.1244  267.2850 H   0  0  0  0  0  0  0  0  0  0  0  0
   97.3310   48.3231  268.2594 H   0  0  0  0  0  0  0  0  0  0  0  0
   96.8796   46.1934  267.1429 H   0  0  0  0  0  0  0  0  0  0  0  0
   91.4799   47.2891  263.8947 H   0  0  0  0  0  0  0  0  0  0  0  0
   88.2719   45.3759  262.0320 H   0  0  0  0  0  0  0  0  0  0  0  0
   86.8643   45.6397  264.0199 H   0  0  0  0  0  0  0  0  0  0  0  0
   87.4214   45.7233  268.7136 H   0  0  0  0  0  0  0  0  0  0  0  0
   87.9356   44.6732  267.3500 H   0  0  0  0  0  0  0  0  0  0  0  0
   89.0558   45.9204  267.9951 H   0  0  0  0  0  0  0  0  0  0  0  0
   94.9066   51.7763  267.2231 H   0  0  0  0  0  0  0  0  0  0  0  0
   95.2201   53.8156  268.5973 H   0  0  0  0  0  0  0  0  0  0  0  0
   91.6272   50.5432  269.6669 H   0  0  0  0  0  0  0  0  0  0  0  0
   90.8670   52.8350  271.2537 H   0  0  0  0  0  0  0  0  0  0  0  0
   92.0054   51.8054  272.1867 H   0  0  0  0  0  0  0  0  0  0  0  0
   92.5514   55.1111  273.4879 H   0  0  0  0  0  0  0  0  0  0  0  0
  1  2  1  0  0  0  0
  1  5  1  0  0  0  0
  2  3  1  0  0  0  0
  2 12  2  3  0  0  0
  3  4  2  0  0  0  0
  4  6  1  0  0  0  0
  4 11  1  0  0  0  0
  5  6  2  0  0  0  0
  5 10  1  0  0  0  0
  6  7  1  0  0  0  0
  7  8  2  0  0  0  0
  8  9  1  0  0  0  0
  9 10  2  0  0  0  0
 11 23  2  0  0  0  0
 11 25  1  0  0  0  0
 12 13  1  0  0  0  0
 13 14  2  0  0  0  0
 13 18  1  0  0  0  0
 14 15  1  0  0  0  0
 15 16  2  0  0  0  0
 16 17  1  0  0  0  0
 17 18  2  0  0  0  0
 18 19  1  0  0  0  0
 19 20  2  0  0  0  0
 19 21  2  0  0  0  0
 19 22  1  0  0  0  0
 23 24  1  0  0  0  0
 24 27  2  0  0  0  0
 25 26  2  0  0  0  0
 26 27  1  0  0  0  0
 26 30  1  0  0  0  0
 27 28  1  0  0  0  0
 28 29  1  0  0  0  0
 29 30  1  0  0  0  0
 29 31  2  0  0  0  0
  1 32  1  0  0  0  0
  1 33  1  0  0  0  0
  3 34  1  0  0  0  0
  8 35  1  0  0  0  0
  9 36  1  0  0  0  0
 14 37  1  0  0  0  0
 16 38  1  0  0  0  0
 17 39  1  0  0  0  0
 22 40  1  0  0  0  0
 22 41  1  0  0  0  0
 22 42  1  0  0  0  0
 23 43  1  0  0  0  0
 24 44  1  0  0  0  0
 25 45  1  0  0  0  0
 30 46  1  0  0  0  0
 30 47  1  0  0  0  0
 31 48  1  0  0  0  0
M  END
> <ID>
68

> <IC50[uM]>
0.068

$$$$
68
  -OEChem-05192314313D
 Structure written by MMmdl.
 48 52  0     0  0  0  0  0  0999 V2000
   92.5906   47.2900  266.3444 C   0  0  0  0  0  0  0  0  0  0  0  0
   91.5700   48.2152  266.5159 C   0  0  0  0  0  0  0  0  0  0  0  0
   91.8167   49.4248  267.1546 C   0  0  0  0  0  0  0  0  0  0  0  0
   93.0889   49.7623  267.6340 C   0  0  0  0  0  0  0  0  0  0  0  0
   93.8920   47.5770  266.8285 C   0  0  0  0  0  0  0  0  0  0  0  0
   94.1480   48.8244  267.4865 C   0  0  0  0  0  0  0  0  0  0  0  0
   95.3850   49.0832  268.0126 N   0  0  0  0  0  0  0  0  0  0  0  0
   96.3430   48.1354  267.8658 C   0  0  0  0  0  0  0  0  0  0  0  0
   96.0897   46.9257  267.2216 C   0  0  0  0  0  0  0  0  0  0  0  0
   94.8705   46.6478  266.6904 N   0  0  0  0  0  0  0  0  0  0  0  0
   93.2613   51.0285  268.3807 C   0  0  0  0  0  0  0  0  0  0  0  0
   90.2520   47.9338  266.1399 N   0  0  0  0  0  0  0  0  0  0  0  0
   89.7015   47.1928  265.0832 C   0  0  0  0  0  0  0  0  0  0  0  0
   90.4532   46.9549  263.9208 C   0  0  0  0  0  0  0  0  0  0  0  0
   89.9543   46.3298  262.8373 N   0  0  0  0  0  0  0  0  0  0  0  0
   88.6785   45.8812  262.8956 C   0  0  0  0  0  0  0  0  0  0  0  0
   87.8678   46.0387  264.0101 C   0  0  0  0  0  0  0  0  0  0  0  0
   88.3733   46.7249  265.1240 C   0  0  0  0  0  0  0  0  0  0  0  0
   87.3145   46.9352  266.5561 S   0  0  0  0  0  0  0  0  0  0  0  0
   87.5376   48.2780  267.1026 O   0  0  0  0  0  0  0  0  0  0  0  0
   85.9614   46.5209  266.1752 O   0  0  0  0  0  0  0  0  0  0  0  0
   88.0033   45.6830  267.7810 C   0  0  0  0  0  0  0  0  0  0  0  0
   94.2676   51.9515  268.0760 C   0  0  0  0  0  0  0  0  0  0  0  0
   94.4607   53.0907  268.8507 C   0  0  0  0  0  0  0  0  0  0  0  0
   92.4286   51.2390  269.4665 C   0  0  0  0  0  0  0  0  0  0  0  0
   92.6104   52.3297  270.2980 C   0  0  0  0  0  0  0  0  0  0  0  0
   93.6343   53.2671  269.9747 C   0  0  0  0  0  0  0  0  0  0  0  0
   93.6567   54.5790  271.1456 S   0  0  0  0  0  0  0  0  0  0  0  0
   92.4470   53.7602  272.0760 C   0  0  0  0  0  0  0  0  0  0  0  0
   91.9259   52.6515  271.4883 C   0  0  0  0  0  0  0  0  0  0  0  0
   92.0631   54.2673  273.2652 N   0  0  0  0  0  0  0  0  0  0  0  0
   92.3938   46.3537  265.8434 H   0  0  0  0  0  0  0  0  0  0  0  0
   91.5369   50.2134  266.4406 H   0  0  0  0  0  0  0  0  0  0  0  0
   91.1411   49.4591  268.0220 H   0  0  0  0  0  0  0  0  0  0  0  0
   97.3310   48.3231  268.2594 H   0  0  0  0  0  0  0  0  0  0  0  0
   96.8796   46.1934  267.1429 H   0  0  0  0  0  0  0  0  0  0  0  0
   91.4799   47.2891  263.8947 H   0  0  0  0  0  0  0  0  0  0  0  0
   88.2719   45.3759  262.0320 H   0  0  0  0  0  0  0  0  0  0  0  0
   86.8643   45.6397  264.0199 H   0  0  0  0  0  0  0  0  0  0  0  0
   87.4214   45.7233  268.7136 H   0  0  0  0  0  0  0  0  0  0  0  0
   87.9356   44.6732  267.3500 H   0  0  0  0  0  0  0  0  0  0  0  0
   89.0558   45.9204  267.9951 H   0  0  0  0  0  0  0  0  0  0  0  0
   94.9066   51.7763  267.2231 H   0  0  0  0  0  0  0  0  0  0  0  0
   95.2201   53.8156  268.5973 H   0  0  0  0  0  0  0  0  0  0  0  0
   91.6272   50.5432  269.6669 H   0  0  0  0  0  0  0  0  0  0  0  0
   90.8670   52.8350  271.2537 H   0  0  0  0  0  0  0  0  0  0  0  0
   92.0054   51.8054  272.1867 H   0  0  0  0  0  0  0  0  0  0  0  0
   92.5514   55.1111  273.4879 H   0  0  0  0  0  0  0  0  0  0  0  0
  1  2  1  0  0  0  0
  1  5  2  0  0  0  0
  2  3  1  0  0  0  0
  2 12  2  3  0  0  0
  3  4  1  0  0  0  0
  4  6  2  0  0  0  0
  4 11  1  0  0  0  0
  5  6  1  0  0  0  0
  5 10  1  0  0  0  0
  6  7  1  0  0  0  0
  7  8  2  0  0  0  0
  8  9  1  0  0  0  0
  9 10  2  0  0  0  0
 11 23  2  0  0  0  0
 11 25  1  0  0  0  0
 12 13  1  0  0  0  0
 13 14  2  0  0  0  0
 13 18  1  0  0  0  0
 14 15  1  0  0  0  0
 15 16  2  0  0  0  0
 16 17  1  0  0  0  0
 17 18  2  0  0  0  0
 18 19  1  0  0  0  0
 19 20  2  0  0  0  0
 19 21  2  0  0  0  0
 19 22  1  0  0  0  0
 23 24  1  0  0  0  0
 24 27  2  0  0  0  0
 25 26  2  0  0  0  0
 26 27  1  0  0  0  0
 26 30  1  0  0  0  0
 27 28  1  0  0  0  0
 28 29  1  0  0  0  0
 29 30  1  0  0  0  0
 29 31  2  0  0  0  0
  1 32  1  0  0  0  0
  3 33  1  0  0  0  0
  3 34  1  0  0  0  0
  8 35  1  0  0  0  0
  9 36  1  0  0  0  0
 14 37  1  0  0  0  0
 16 38  1  0  0  0  0
 17 39  1  0  0  0  0
 22 40  1  0  0  0  0
 22 41  1  0  0  0  0
 22 42  1  0  0  0  0
 23 43  1  0  0  0  0
 24 44  1  0  0  0  0
 25 45  1  0  0  0  0
 30 46  1  0  0  0  0
 30 47  1  0  0  0  0
 31 48  1  0  0  0  0
M  END
> <ID>
68

> <IC50[uM]>
0.068

$$$$
68
  -OEChem-05192314313D
 Structure written by MMmdl.
 48 52  0     1  0  0  0  0  0999 V2000
   92.5906   47.2900  266.3444 C   0  0  0  0  0  0  0  0  0  0  0  0
   91.5700   48.2152  266.5159 C   0  0  0  0  0  0  0  0  0  0  0  0
   91.8167   49.4248  267.1546 C   0  0  0  0  0  0  0  0  0  0  0  0
   93.0889   49.7623  267.6340 C   0  0  0  0  0  0  0  0  0  0  0  0
   93.8920   47.5770  266.8285 C   0  0  0  0  0  0  0  0  0  0  0  0
   94.1480   48.8244  267.4865 C   0  0  0  0  0  0  0  0  0  0  0  0
   95.3850   49.0832  268.0126 N   0  0  0  0  0  0  0  0  0  0  0  0
   96.3430   48.1354  267.8658 C   0  0  0  0  0  0  0  0  0  0  0  0
   96.0897   46.9257  267.2216 C   0  0  0  0  0  0  0  0  0  0  0  0
   94.8705   46.6478  266.6904 N   0  0  0  0  0  0  0  0  0  0  0  0
   93.2613   51.0285  268.3807 C   0  0  0  0  0  0  0  0  0  0  0  0
   90.2520   47.9338  266.1399 N   0  0  0  0  0  0  0  0  0  0  0  0
   89.7015   47.1928  265.0832 C   0  0  0  0  0  0  0  0  0  0  0  0
   90.4532   46.9549  263.9208 C   0  0  0  0  0  0  0  0  0  0  0  0
   89.9543   46.3298  262.8373 N   0  0  0  0  0  0  0  0  0  0  0  0
   88.6785   45.8812  262.8956 C   0  0  0  0  0  0  0  0  0  0  0  0
   87.8678   46.0387  264.0101 C   0  0  0  0  0  0  0  0  0  0  0  0
   88.3733   46.7249  265.1240 C   0  0  3  0  0  0  0  0  0  0  0  0
   87.3145   46.9352  266.5561 S   0  0  0  0  0  0  0  0  0  0  0  0
   87.5376   48.2780  267.1026 O   0  0  0  0  0  0  0  0  0  0  0  0
   85.9614   46.5209  266.1752 O   0  0  0  0  0  0  0  0  0  0  0  0
   88.0033   45.6830  267.7810 C   0  0  0  0  0  0  0  0  0  0  0  0
   94.2676   51.9515  268.0760 C   0  0  0  0  0  0  0  0  0  0  0  0
   94.4607   53.0907  268.8507 C   0  0  0  0  0  0  0  0  0  0  0  0
   92.4286   51.2390  269.4665 C   0  0  0  0  0  0  0  0  0  0  0  0
   92.6104   52.3297  270.2980 C   0  0  0  0  0  0  0  0  0  0  0  0
   93.6343   53.2671  269.9747 C   0  0  0  0  0  0  0  0  0  0  0  0
   93.6567   54.5790  271.1456 S   0  0  0  0  0  0  0  0  0  0  0  0
   92.4470   53.7602  272.0760 C   0  0  0  0  0  0  0  0  0  0  0  0
   91.9259   52.6515  271.4883 C   0  0  0  0  0  0  0  0  0  0  0  0
   92.0631   54.2673  273.2652 N   0  0  0  0  0  0  0  0  0  0  0  0
   92.3938   46.3537  265.8434 H   0  0  0  0  0  0  0  0  0  0  0  0
   91.0044   50.1244  267.2850 H   0  0  0  0  0  0  0  0  0  0  0  0
   97.3310   48.3231  268.2594 H   0  0  0  0  0  0  0  0  0  0  0  0
   96.8796   46.1934  267.1429 H   0  0  0  0  0  0  0  0  0  0  0  0
   91.4799   47.2891  263.8947 H   0  0  0  0  0  0  0  0  0  0  0  0
   88.2719   45.3759  262.0320 H   0  0  0  0  0  0  0  0  0  0  0  0
   86.8643   45.6397  264.0199 H   0  0  0  0  0  0  0  0  0  0  0  0
   88.0150   47.6790  264.7101 H   0  0  0  0  0  0  0  0  0  0  0  0
   87.4214   45.7233  268.7136 H   0  0  0  0  0  0  0  0  0  0  0  0
   87.9356   44.6732  267.3500 H   0  0  0  0  0  0  0  0  0  0  0  0
   89.0558   45.9204  267.9951 H   0  0  0  0  0  0  0  0  0  0  0  0
   94.9066   51.7763  267.2231 H   0  0  0  0  0  0  0  0  0  0  0  0
   95.2201   53.8156  268.5973 H   0  0  0  0  0  0  0  0  0  0  0  0
   91.6272   50.5432  269.6669 H   0  0  0  0  0  0  0  0  0  0  0  0
   90.8670   52.8350  271.2537 H   0  0  0  0  0  0  0  0  0  0  0  0
   92.0054   51.8054  272.1867 H   0  0  0  0  0  0  0  0  0  0  0  0
   92.5514   55.1111  273.4879 H   0  0  0  0  0  0  0  0  0  0  0  0
  1  2  2  0  0  0  0
  1  5  1  0  0  0  0
  2  3  1  0  0  0  0
  2 12  1  0  0  0  0
  3  4  2  0  0  0  0
  4  6  1  0  0  0  0
  4 11  1  0  0  0  0
  5  6  2  0  0  0  0
  5 10  1  0  0  0  0
  6  7  1  0  0  0  0
  7  8  2  0  0  0  0
  8  9  1  0  0  0  0
  9 10  2  0  0  0  0
 11 23  2  0  0  0  0
 11 25  1  0  0  0  0
 12 13  2  0  0  0  0
 13 14  1  0  0  0  0
 13 18  1  0  0  0  0
 14 15  2  0  0  0  0
 15 16  1  0  0  0  0
 16 17  2  0  0  0  0
 17 18  1  0  0  0  0
 18 19  1  0  0  0  0
 19 20  2  0  0  0  0
 19 21  2  0  0  0  0
 19 22  1  0  0  0  0
 23 24  1  0  0  0  0
 24 27  2  0  0  0  0
 25 26  2  0  0  0  0
 26 27  1  0  0  0  0
 26 30  1  0  0  0  0
 27 28  1  0  0  0  0
 28 29  1  0  0  0  0
 29 30  1  0  0  0  0
 29 31  2  0  0  0  0
  1 32  1  0  0  0  0
  3 33  1  0  0  0  0
  8 34  1  0  0  0  0
  9 35  1  0  0  0  0
 14 36  1  0  0  0  0
 16 37  1  0  0  0  0
 17 38  1  0  0  0  0
 18 39  1  0  0  0  0
 22 40  1  0  0  0  0
 22 41  1  0  0  0  0
 22 42  1  0  0  0  0
 23 43  1  0  0  0  0
 24 44  1  0  0  0  0
 25 45  1  0  0  0  0
 30 46  1  0  0  0  0
 30 47  1  0  0  0  0
 31 48  1  0  0  0  0
M  END
> <ID>
68

> <IC50[uM]>
0.068

$$$$
68
  -OEChem-05192314313D
 Structure written by MMmdl.
 48 52  0     0  0  0  0  0  0999 V2000
   92.5906   47.2900  266.3444 C   0  0  0  0  0  0  0  0  0  0  0  0
   91.5700   48.2152  266.5159 C   0  0  0  0  0  0  0  0  0  0  0  0
   91.8167   49.4248  267.1546 C   0  0  0  0  0  0  0  0  0  0  0  0
   93.0889   49.7623  267.6340 C   0  0  0  0  0  0  0  0  0  0  0  0
   93.8920   47.5770  266.8285 C   0  0  0  0  0  0  0  0  0  0  0  0
   94.1480   48.8244  267.4865 C   0  0  0  0  0  0  0  0  0  0  0  0
   95.3850   49.0832  268.0126 N   0  0  0  0  0  0  0  0  0  0  0  0
   96.3430   48.1354  267.8658 C   0  0  0  0  0  0  0  0  0  0  0  0
   96.0897   46.9257  267.2216 C   0  0  0  0  0  0  0  0  0  0  0  0
   94.8705   46.6478  266.6904 N   0  0  0  0  0  0  0  0  0  0  0  0
   93.2613   51.0285  268.3807 C   0  0  0  0  0  0  0  0  0  0  0  0
   90.2520   47.9338  266.1399 N   0  0  0  0  0  0  0  0  0  0  0  0
   89.7015   47.1928  265.0832 C   0  0  0  0  0  0  0  0  0  0  0  0
   90.4532   46.9549  263.9208 C   0  0  0  0  0  0  0  0  0  0  0  0
   89.9543   46.3298  262.8373 N   0  0  0  0  0  0  0  0  0  0  0  0
   88.6785   45.8812  262.8956 C   0  0  0  0  0  0  0  0  0  0  0  0
   87.8678   46.0387  264.0101 C   0  0  0  0  0  0  0  0  0  0  0  0
   88.3733   46.7249  265.1240 C   0  0  0  0  0  0  0  0  0  0  0  0
   87.3145   46.9352  266.5561 S   0  0  0  0  0  0  0  0  0  0  0  0
   87.5376   48.2780  267.1026 O   0  0  0  0  0  0  0  0  0  0  0  0
   85.9614   46.5209  266.1752 O   0  0  0  0  0  0  0  0  0  0  0  0
   88.0033   45.6830  267.7810 C   0  0  0  0  0  0  0  0  0  0  0  0
   94.2676   51.9515  268.0760 C   0  0  0  0  0  0  0  0  0  0  0  0
   94.4607   53.0907  268.8507 C   0  0  0  0  0  0  0  0  0  0  0  0
   92.4286   51.2390  269.4665 C   0  0  0  0  0  0  0  0  0  0  0  0
   92.6104   52.3297  270.2980 C   0  0  0  0  0  0  0  0  0  0  0  0
   93.6343   53.2671  269.9747 C   0  0  0  0  0  0  0  0  0  0  0  0
   93.6567   54.5790  271.1456 S   0  0  0  0  0  0  0  0  0  0  0  0
   92.4470   53.7602  272.0760 C   0  0  0  0  0  0  0  0  0  0  0  0
   91.9259   52.6515  271.4883 C   0  0  0  0  0  0  0  0  0  0  0  0
   92.0631   54.2673  273.2652 N   0  0  0  0  0  0  0  0  0  0  0  0
   92.3938   46.3537  265.8434 H   0  0  0  0  0  0  0  0  0  0  0  0
   91.0044   50.1244  267.2850 H   0  0  0  0  0  0  0  0  0  0  0  0
   97.3310   48.3231  268.2594 H   0  0  0  0  0  0  0  0  0  0  0  0
   96.8796   46.1934  267.1429 H   0  0  0  0  0  0  0  0  0  0  0  0
   91.4799   47.2891  263.8947 H   0  0  0  0  0  0  0  0  0  0  0  0
   88.1483   46.3700  262.0650 H   0  0  0  0  0  0  0  0  0  0  0  0
   88.7305   44.7981  262.7106 H   0  0  0  0  0  0  0  0  0  0  0  0
   86.8643   45.6397  264.0199 H   0  0  0  0  0  0  0  0  0  0  0  0
   87.4214   45.7233  268.7136 H   0  0  0  0  0  0  0  0  0  0  0  0
   87.9356   44.6732  267.3500 H   0  0  0  0  0  0  0  0  0  0  0  0
   89.0558   45.9204  267.9951 H   0  0  0  0  0  0  0  0  0  0  0  0
   94.9066   51.7763  267.2231 H   0  0  0  0  0  0  0  0  0  0  0  0
   95.2201   53.8156  268.5973 H   0  0  0  0  0  0  0  0  0  0  0  0
   91.6272   50.5432  269.6669 H   0  0  0  0  0  0  0  0  0  0  0  0
   90.8670   52.8350  271.2537 H   0  0  0  0  0  0  0  0  0  0  0  0
   92.0054   51.8054  272.1867 H   0  0  0  0  0  0  0  0  0  0  0  0
   92.5514   55.1111  273.4879 H   0  0  0  0  0  0  0  0  0  0  0  0
  1  2  2  0  0  0  0
  1  5  1  0  0  0  0
  2  3  1  0  0  0  0
  2 12  1  0  0  0  0
  3  4  2  0  0  0  0
  4  6  1  0  0  0  0
  4 11  1  0  0  0  0
  5  6  2  0  0  0  0
  5 10  1  0  0  0  0
  6  7  1  0  0  0  0
  7  8  2  0  0  0  0
  8  9  1  0  0  0  0
  9 10  2  0  0  0  0
 11 23  2  0  0  0  0
 11 25  1  0  0  0  0
 12 13  2  0  0  0  0
 13 14  1  0  0  0  0
 13 18  1  0  0  0  0
 14 15  2  0  0  0  0
 15 16  1  0  0  0  0
 16 17  1  0  0  0  0
 17 18  2  0  0  0  0
 18 19  1  0  0  0  0
 19 20  2  0  0  0  0
 19 21  2  0  0  0  0
 19 22  1  0  0  0  0
 23 24  1  0  0  0  0
 24 27  2  0  0  0  0
 25 26  2  0  0  0  0
 26 27  1  0  0  0  0
 26 30  1  0  0  0  0
 27 28  1  0  0  0  0
 28 29  1  0  0  0  0
 29 30  1  0  0  0  0
 29 31  2  0  0  0  0
  1 32  1  0  0  0  0
  3 33  1  0  0  0  0
  8 34  1  0  0  0  0
  9 35  1  0  0  0  0
 14 36  1  0  0  0  0
 16 37  1  0  0  0  0
 16 38  1  0  0  0  0
 17 39  1  0  0  0  0
 22 40  1  0  0  0  0
 22 41  1  0  0  0  0
 22 42  1  0  0  0  0
 23 43  1  0  0  0  0
 24 44  1  0  0  0  0
 25 45  1  0  0  0  0
 30 46  1  0  0  0  0
 30 47  1  0  0  0  0
 31 48  1  0  0  0  0
M  END
> <ID>
68

> <IC50[uM]>
0.068

$$$$
68
  -OEChem-05192314313D
 Structure written by MMmdl.
 48 52  0     0  0  0  0  0  0999 V2000
   92.5906   47.2900  266.3444 C   0  0  0  0  0  0  0  0  0  0  0  0
   91.5700   48.2152  266.5159 C   0  0  0  0  0  0  0  0  0  0  0  0
   91.8167   49.4248  267.1546 C   0  0  0  0  0  0  0  0  0  0  0  0
   93.0889   49.7623  267.6340 C   0  0  0  0  0  0  0  0  0  0  0  0
   93.8920   47.5770  266.8285 C   0  0  0  0  0  0  0  0  0  0  0  0
   94.1480   48.8244  267.4865 C   0  0  0  0  0  0  0  0  0  0  0  0
   95.3850   49.0832  268.0126 N   0  0  0  0  0  0  0  0  0  0  0  0
   96.3430   48.1354  267.8658 C   0  0  0  0  0  0  0  0  0  0  0  0
   96.0897   46.9257  267.2216 C   0  0  0  0  0  0  0  0  0  0  0  0
   94.8705   46.6478  266.6904 N   0  0  0  0  0  0  0  0  0  0  0  0
   93.2613   51.0285  268.3807 C   0  0  0  0  0  0  0  0  0  0  0  0
   90.2520   47.9338  266.1399 N   0  0  0  0  0  0  0  0  0  0  0  0
   89.7015   47.1928  265.0832 C   0  0  0  0  0  0  0  0  0  0  0  0
   90.4532   46.9549  263.9208 C   0  0  0  0  0  0  0  0  0  0  0  0
   89.9543   46.3298  262.8373 N   0  0  0  0  0  0  0  0  0  0  0  0
   88.6785   45.8812  262.8956 C   0  0  0  0  0  0  0  0  0  0  0  0
   87.8678   46.0387  264.0101 C   0  0  0  0  0  0  0  0  0  0  0  0
   88.3733   46.7249  265.1240 C   0  0  0  0  0  0  0  0  0  0  0  0
   87.3145   46.9352  266.5561 S   0  0  0  0  0  0  0  0  0  0  0  0
   87.5376   48.2780  267.1026 O   0  0  0  0  0  0  0  0  0  0  0  0
   85.9614   46.5209  266.1752 O   0  0  0  0  0  0  0  0  0  0  0  0
   88.0033   45.6830  267.7810 C   0  0  0  0  0  0  0  0  0  0  0  0
   94.2676   51.9515  268.0760 C   0  0  0  0  0  0  0  0  0  0  0  0
   94.4607   53.0907  268.8507 C   0  0  0  0  0  0  0  0  0  0  0  0
   92.4286   51.2390  269.4665 C   0  0  0  0  0  0  0  0  0  0  0  0
   92.6104   52.3297  270.2980 C   0  0  0  0  0  0  0  0  0  0  0  0
   93.6343   53.2671  269.9747 C   0  0  0  0  0  0  0  0  0  0  0  0
   93.6567   54.5790  271.1456 S   0  0  0  0  0  0  0  0  0  0  0  0
   92.4470   53.7602  272.0760 C   0  0  0  0  0  0  0  0  0  0  0  0
   91.9259   52.6515  271.4883 C   0  0  0  0  0  0  0  0  0  0  0  0
   92.0631   54.2673  273.2652 N   0  0  0  0  0  0  0  0  0  0  0  0
   92.3938   46.3537  265.8434 H   0  0  0  0  0  0  0  0  0  0  0  0
   91.0044   50.1244  267.2850 H   0  0  0  0  0  0  0  0  0  0  0  0
   97.3310   48.3231  268.2594 H   0  0  0  0  0  0  0  0  0  0  0  0
   96.8796   46.1934  267.1429 H   0  0  0  0  0  0  0  0  0  0  0  0
   90.7912   47.9418  263.5718 H   0  0  0  0  0  0  0  0  0  0  0  0
   91.3227   46.3610  264.2391 H   0  0  0  0  0  0  0  0  0  0  0  0
   88.2719   45.3759  262.0320 H   0  0  0  0  0  0  0  0  0  0  0  0
   86.8643   45.6397  264.0199 H   0  0  0  0  0  0  0  0  0  0  0  0
   87.4214   45.7233  268.7136 H   0  0  0  0  0  0  0  0  0  0  0  0
   87.9356   44.6732  267.3500 H   0  0  0  0  0  0  0  0  0  0  0  0
   89.0558   45.9204  267.9951 H   0  0  0  0  0  0  0  0  0  0  0  0
   94.9066   51.7763  267.2231 H   0  0  0  0  0  0  0  0  0  0  0  0
   95.2201   53.8156  268.5973 H   0  0  0  0  0  0  0  0  0  0  0  0
   91.6272   50.5432  269.6669 H   0  0  0  0  0  0  0  0  0  0  0  0
   90.8670   52.8350  271.2537 H   0  0  0  0  0  0  0  0  0  0  0  0
   92.0054   51.8054  272.1867 H   0  0  0  0  0  0  0  0  0  0  0  0
   92.5514   55.1111  273.4879 H   0  0  0  0  0  0  0  0  0  0  0  0
  1  2  2  0  0  0  0
  1  5  1  0  0  0  0
  2  3  1  0  0  0  0
  2 12  1  0  0  0  0
  3  4  2  0  0  0  0
  4  6  1  0  0  0  0
  4 11  1  0  0  0  0
  5  6  2  0  0  0  0
  5 10  1  0  0  0  0
  6  7  1  0  0  0  0
  7  8  2  0  0  0  0
  8  9  1  0  0  0  0
  9 10  2  0  0  0  0
 11 23  2  0  0  0  0
 11 25  1  0  0  0  0
 12 13  2  0  0  0  0
 13 14  1  0  0  0  0
 13 18  1  0  0  0  0
 14 15  1  0  0  0  0
 15 16  2  0  0  0  0
 16 17  1  0  0  0  0
 17 18  2  0  0  0  0
 18 19  1  0  0  0  0
 19 20  2  0  0  0  0
 19 21  2  0  0  0  0
 19 22  1  0  0  0  0
 23 24  1  0  0  0  0
 24 27  2  0  0  0  0
 25 26  2  0  0  0  0
 26 27  1  0  0  0  0
 26 30  1  0  0  0  0
 27 28  1  0  0  0  0
 28 29  1  0  0  0  0
 29 30  1  0  0  0  0
 29 31  2  0  0  0  0
  1 32  1  0  0  0  0
  3 33  1  0  0  0  0
  8 34  1  0  0  0  0
  9 35  1  0  0  0  0
 14 36  1  0  0  0  0
 14 37  1  0  0  0  0
 16 38  1  0  0  0  0
 17 39  1  0  0  0  0
 22 40  1  0  0  0  0
 22 41  1  0  0  0  0
 22 42  1  0  0  0  0
 23 43  1  0  0  0  0
 24 44  1  0  0  0  0
 25 45  1  0  0  0  0
 30 46  1  0  0  0  0
 30 47  1  0  0  0  0
 31 48  1  0  0  0  0
M  END
> <ID>
68

> <IC50[uM]>
0.068

$$$$
68
  -OEChem-05192314313D
 Structure written by MMmdl.
 48 52  0     1  0  0  0  0  0999 V2000
   92.5906   47.2900  266.3444 C   0  0  0  0  0  0  0  0  0  0  0  0
   91.5700   48.2152  266.5159 C   0  0  0  0  0  0  0  0  0  0  0  0
   91.8167   49.4248  267.1546 C   0  0  0  0  0  0  0  0  0  0  0  0
   93.0889   49.7623  267.6340 C   0  0  0  0  0  0  0  0  0  0  0  0
   93.8920   47.5770  266.8285 C   0  0  0  0  0  0  0  0  0  0  0  0
   94.1480   48.8244  267.4865 C   0  0  0  0  0  0  0  0  0  0  0  0
   95.3850   49.0832  268.0126 N   0  0  0  0  0  0  0  0  0  0  0  0
   96.3430   48.1354  267.8658 C   0  0  0  0  0  0  0  0  0  0  0  0
   96.0897   46.9257  267.2216 C   0  0  0  0  0  0  0  0  0  0  0  0
   94.8705   46.6478  266.6904 N   0  0  0  0  0  0  0  0  0  0  0  0
   93.2613   51.0285  268.3807 C   0  0  0  0  0  0  0  0  0  0  0  0
   90.2520   47.9338  266.1399 N   0  0  0  0  0  0  0  0  0  0  0  0
   89.7015   47.1928  265.0832 C   0  0  0  0  0  0  0  0  0  0  0  0
   90.4532   46.9549  263.9208 C   0  0  0  0  0  0  0  0  0  0  0  0
   89.9543   46.3298  262.8373 N   0  0  0  0  0  0  0  0  0  0  0  0
   88.6785   45.8812  262.8956 C   0  0  0  0  0  0  0  0  0  0  0  0
   87.8678   46.0387  264.0101 C   0  0  0  0  0  0  0  0  0  0  0  0
   88.3733   46.7249  265.1240 C   0  0  0  0  0  0  0  0  0  0  0  0
   87.3145   46.9352  266.5561 S   0  0  0  0  0  0  0  0  0  0  0  0
   87.5376   48.2780  267.1026 O   0  0  0  0  0  0  0  0  0  0  0  0
   85.9614   46.5209  266.1752 O   0  0  0  0  0  0  0  0  0  0  0  0
   88.0033   45.6830  267.7810 C   0  0  0  0  0  0  0  0  0  0  0  0
   94.2676   51.9515  268.0760 C   0  0  0  0  0  0  0  0  0  0  0  0
   94.4607   53.0907  268.8507 C   0  0  0  0  0  0  0  0  0  0  0  0
   92.4286   51.2390  269.4665 C   0  0  0  0  0  0  0  0  0  0  0  0
   92.6104   52.3297  270.2980 C   0  0  0  0  0  0  0  0  0  0  0  0
   93.6343   53.2671  269.9747 C   0  0  3  0  0  0  0  0  0  0  0  0
   93.6567   54.5790  271.1456 S   0  0  0  0  0  0  0  0  0  0  0  0
   92.4470   53.7602  272.0760 C   0  0  0  0  0  0  0  0  0  0  0  0
   91.9259   52.6515  271.4883 C   0  0  0  0  0  0  0  0  0  0  0  0
   92.0631   54.2673  273.2652 N   0  0  0  0  0  0  0  0  0  0  0  0
   92.3938   46.3537  265.8434 H   0  0  0  0  0  0  0  0  0  0  0  0
   91.0044   50.1244  267.2850 H   0  0  0  0  0  0  0  0  0  0  0  0
   97.3310   48.3231  268.2594 H   0  0  0  0  0  0  0  0  0  0  0  0
   96.8796   46.1934  267.1429 H   0  0  0  0  0  0  0  0  0  0  0  0
   89.5669   48.3414  266.7437 H   0  0  0  0  0  0  0  0  0  0  0  0
   91.4799   47.2891  263.8947 H   0  0  0  0  0  0  0  0  0  0  0  0
   88.2719   45.3759  262.0320 H   0  0  0  0  0  0  0  0  0  0  0  0
   86.8643   45.6397  264.0199 H   0  0  0  0  0  0  0  0  0  0  0  0
   87.4214   45.7233  268.7136 H   0  0  0  0  0  0  0  0  0  0  0  0
   87.9356   44.6732  267.3500 H   0  0  0  0  0  0  0  0  0  0  0  0
   89.0558   45.9204  267.9951 H   0  0  0  0  0  0  0  0  0  0  0  0
   94.9066   51.7763  267.2231 H   0  0  0  0  0  0  0  0  0  0  0  0
   95.2201   53.8156  268.5973 H   0  0  0  0  0  0  0  0  0  0  0  0
   91.6272   50.5432  269.6669 H   0  0  0  0  0  0  0  0  0  0  0  0
   94.3489   52.7023  270.5914 H   0  0  0  0  0  0  0  0  0  0  0  0
   91.0932   52.0881  271.8827 H   0  0  0  0  0  0  0  0  0  0  0  0
   92.5514   55.1111  273.4879 H   0  0  0  0  0  0  0  0  0  0  0  0
  1  2  2  0  0  0  0
  1  5  1  0  0  0  0
  2  3  1  0  0  0  0
  2 12  1  0  0  0  0
  3  4  2  0  0  0  0
  4  6  1  0  0  0  0
  4 11  1  0  0  0  0
  5  6  2  0  0  0  0
  5 10  1  0  0  0  0
  6  7  1  0  0  0  0
  7  8  2  0  0  0  0
  8  9  1  0  0  0  0
  9 10  2  0  0  0  0
 11 23  1  0  0  0  0
 11 25  2  0  0  0  0
 12 13  1  0  0  0  0
 13 14  2  0  0  0  0
 13 18  1  0  0  0  0
 14 15  1  0  0  0  0
 15 16  2  0  0  0  0
 16 17  1  0  0  0  0
 17 18  2  0  0  0  0
 18 19  1  0  0  0  0
 19 20  2  0  0  0  0
 19 21  2  0  0  0  0
 19 22  1  0  0  0  0
 23 24  2  0  0  0  0
 24 27  1  0  0  0  0
 25 26  1  0  0  0  0
 26 27  1  0  0  0  0
 26 30  2  0  0  0  0
 27 28  1  0  0  0  0
 28 29  1  0  0  0  0
 29 30  1  0  0  0  0
 29 31  2  0  0  0  0
  1 32  1  0  0  0  0
  3 33  1  0  0  0  0
  8 34  1  0  0  0  0
  9 35  1  0  0  0  0
 12 36  1  0  0  0  0
 14 37  1  0  0  0  0
 16 38  1  0  0  0  0
 17 39  1  0  0  0  0
 22 40  1  0  0  0  0
 22 41  1  0  0  0  0
 22 42  1  0  0  0  0
 23 43  1  0  0  0  0
 24 44  1  0  0  0  0
 25 45  1  0  0  0  0
 27 46  1  0  0  0  0
 30 47  1  0  0  0  0
 31 48  1  0  0  0  0
M  END
> <ID>
68

> <IC50[uM]>
0.068

$$$$
68
  -OEChem-05192314313D
 Structure written by MMmdl.
 48 52  0     0  0  0  0  0  0999 V2000
   92.5906   47.2900  266.3444 C   0  0  0  0  0  0  0  0  0  0  0  0
   91.5700   48.2152  266.5159 C   0  0  0  0  0  0  0  0  0  0  0  0
   91.8167   49.4248  267.1546 C   0  0  0  0  0  0  0  0  0  0  0  0
   93.0889   49.7623  267.6340 C   0  0  0  0  0  0  0  0  0  0  0  0
   93.8920   47.5770  266.8285 C   0  0  0  0  0  0  0  0  0  0  0  0
   94.1480   48.8244  267.4865 C   0  0  0  0  0  0  0  0  0  0  0  0
   95.3850   49.0832  268.0126 N   0  0  0  0  0  0  0  0  0  0  0  0
   96.3430   48.1354  267.8658 C   0  0  0  0  0  0  0  0  0  0  0  0
   96.0897   46.9257  267.2216 C   0  0  0  0  0  0  0  0  0  0  0  0
   94.8705   46.6478  266.6904 N   0  0  0  0  0  0  0  0  0  0  0  0
   93.2613   51.0285  268.3807 C   0  0  0  0  0  0  0  0  0  0  0  0
   90.2520   47.9338  266.1399 N   0  0  0  0  0  0  0  0  0  0  0  0
   89.7015   47.1928  265.0832 C   0  0  0  0  0  0  0  0  0  0  0  0
   90.4532   46.9549  263.9208 C   0  0  0  0  0  0  0  0  0  0  0  0
   89.9543   46.3298  262.8373 N   0  0  0  0  0  0  0  0  0  0  0  0
   88.6785   45.8812  262.8956 C   0  0  0  0  0  0  0  0  0  0  0  0
   87.8678   46.0387  264.0101 C   0  0  0  0  0  0  0  0  0  0  0  0
   88.3733   46.7249  265.1240 C   0  0  0  0  0  0  0  0  0  0  0  0
   87.3145   46.9352  266.5561 S   0  0  0  0  0  0  0  0  0  0  0  0
   87.5376   48.2780  267.1026 O   0  0  0  0  0  0  0  0  0  0  0  0
   85.9614   46.5209  266.1752 O   0  0  0  0  0  0  0  0  0  0  0  0
   88.0033   45.6830  267.7810 C   0  0  0  0  0  0  0  0  0  0  0  0
   94.2676   51.9515  268.0760 C   0  0  0  0  0  0  0  0  0  0  0  0
   94.4607   53.0907  268.8507 C   0  0  0  0  0  0  0  0  0  0  0  0
   92.4286   51.2390  269.4665 C   0  0  0  0  0  0  0  0  0  0  0  0
   92.6104   52.3297  270.2980 C   0  0  0  0  0  0  0  0  0  0  0  0
   93.6343   53.2671  269.9747 C   0  0  0  0  0  0  0  0  0  0  0  0
   93.6567   54.5790  271.1456 S   0  0  0  0  0  0  0  0  0  0  0  0
   92.4470   53.7602  272.0760 C   0  0  0  0  0  0  0  0  0  0  0  0
   91.9259   52.6515  271.4883 C   0  0  0  0  0  0  0  0  0  0  0  0
   92.0631   54.2673  273.2652 N   0  0  0  0  0  0  0  0  0  0  0  0
   92.3938   46.3537  265.8434 H   0  0  0  0  0  0  0  0  0  0  0  0
   91.0044   50.1244  267.2850 H   0  0  0  0  0  0  0  0  0  0  0  0
   97.3310   48.3231  268.2594 H   0  0  0  0  0  0  0  0  0  0  0  0
   96.8796   46.1934  267.1429 H   0  0  0  0  0  0  0  0  0  0  0  0
   89.5669   48.3414  266.7437 H   0  0  0  0  0  0  0  0  0  0  0  0
   91.4799   47.2891  263.8947 H   0  0  0  0  0  0  0  0  0  0  0  0
   88.2719   45.3759  262.0320 H   0  0  0  0  0  0  0  0  0  0  0  0
   86.8643   45.6397  264.0199 H   0  0  0  0  0  0  0  0  0  0  0  0
   87.4214   45.7233  268.7136 H   0  0  0  0  0  0  0  0  0  0  0  0
   87.9356   44.6732  267.3500 H   0  0  0  0  0  0  0  0  0  0  0  0
   89.0558   45.9204  267.9951 H   0  0  0  0  0  0  0  0  0  0  0  0
   95.2167   51.3959  268.0971 H   0  0  0  0  0  0  0  0  0  0  0  0
   94.0700   52.3010  267.0519 H   0  0  0  0  0  0  0  0  0  0  0  0
   95.2201   53.8156  268.5973 H   0  0  0  0  0  0  0  0  0  0  0  0
   91.6272   50.5432  269.6669 H   0  0  0  0  0  0  0  0  0  0  0  0
   91.0932   52.0881  271.8827 H   0  0  0  0  0  0  0  0  0  0  0  0
   92.5514   55.1111  273.4879 H   0  0  0  0  0  0  0  0  0  0  0  0
  1  2  2  0  0  0  0
  1  5  1  0  0  0  0
  2  3  1  0  0  0  0
  2 12  1  0  0  0  0
  3  4  2  0  0  0  0
  4  6  1  0  0  0  0
  4 11  1  0  0  0  0
  5  6  2  0  0  0  0
  5 10  1  0  0  0  0
  6  7  1  0  0  0  0
  7  8  2  0  0  0  0
  8  9  1  0  0  0  0
  9 10  2  0  0  0  0
 11 23  1  0  0  0  0
 11 25  2  0  0  0  0
 12 13  1  0  0  0  0
 13 14  2  0  0  0  0
 13 18  1  0  0  0  0
 14 15  1  0  0  0  0
 15 16  2  0  0  0  0
 16 17  1  0  0  0  0
 17 18  2  0  0  0  0
 18 19  1  0  0  0  0
 19 20  2  0  0  0  0
 19 21  2  0  0  0  0
 19 22  1  0  0  0  0
 23 24  1  0  0  0  0
 24 27  2  0  0  0  0
 25 26  1  0  0  0  0
 26 27  1  0  0  0  0
 26 30  2  0  0  0  0
 27 28  1  0  0  0  0
 28 29  1  0  0  0  0
 29 30  1  0  0  0  0
 29 31  2  0  0  0  0
  1 32  1  0  0  0  0
  3 33  1  0  0  0  0
  8 34  1  0  0  0  0
  9 35  1  0  0  0  0
 12 36  1  0  0  0  0
 14 37  1  0  0  0  0
 16 38  1  0  0  0  0
 17 39  1  0  0  0  0
 22 40  1  0  0  0  0
 22 41  1  0  0  0  0
 22 42  1  0  0  0  0
 23 43  1  0  0  0  0
 23 44  1  0  0  0  0
 24 45  1  0  0  0  0
 25 46  1  0  0  0  0
 30 47  1  0  0  0  0
 31 48  1  0  0  0  0
M  END
> <ID>
68

> <IC50[uM]>
0.068

$$$$
68
  -OEChem-05192314313D
 Structure written by MMmdl.
 48 52  0     0  0  0  0  0  0999 V2000
   92.5906   47.2900  266.3444 C   0  0  0  0  0  0  0  0  0  0  0  0
   91.5700   48.2152  266.5159 C   0  0  0  0  0  0  0  0  0  0  0  0
   91.8167   49.4248  267.1546 C   0  0  0  0  0  0  0  0  0  0  0  0
   93.0889   49.7623  267.6340 C   0  0  0  0  0  0  0  0  0  0  0  0
   93.8920   47.5770  266.8285 C   0  0  0  0  0  0  0  0  0  0  0  0
   94.1480   48.8244  267.4865 C   0  0  0  0  0  0  0  0  0  0  0  0
   95.3850   49.0832  268.0126 N   0  0  0  0  0  0  0  0  0  0  0  0
   96.3430   48.1354  267.8658 C   0  0  0  0  0  0  0  0  0  0  0  0
   96.0897   46.9257  267.2216 C   0  0  0  0  0  0  0  0  0  0  0  0
   94.8705   46.6478  266.6904 N   0  0  0  0  0  0  0  0  0  0  0  0
   93.2613   51.0285  268.3807 C   0  0  0  0  0  0  0  0  0  0  0  0
   90.2520   47.9338  266.1399 N   0  0  0  0  0  0  0  0  0  0  0  0
   89.7015   47.1928  265.0832 C   0  0  0  0  0  0  0  0  0  0  0  0
   90.4532   46.9549  263.9208 C   0  0  0  0  0  0  0  0  0  0  0  0
   89.9543   46.3298  262.8373 N   0  0  0  0  0  0  0  0  0  0  0  0
   88.6785   45.8812  262.8956 C   0  0  0  0  0  0  0  0  0  0  0  0
   87.8678   46.0387  264.0101 C   0  0  0  0  0  0  0  0  0  0  0  0
   88.3733   46.7249  265.1240 C   0  0  0  0  0  0  0  0  0  0  0  0
   87.3145   46.9352  266.5561 S   0  0  0  0  0  0  0  0  0  0  0  0
   87.5376   48.2780  267.1026 O   0  0  0  0  0  0  0  0  0  0  0  0
   85.9614   46.5209  266.1752 O   0  0  0  0  0  0  0  0  0  0  0  0
   88.0033   45.6830  267.7810 C   0  0  0  0  0  0  0  0  0  0  0  0
   94.2676   51.9515  268.0760 C   0  0  0  0  0  0  0  0  0  0  0  0
   94.4607   53.0907  268.8507 C   0  0  0  0  0  0  0  0  0  0  0  0
   92.4286   51.2390  269.4665 C   0  0  0  0  0  0  0  0  0  0  0  0
   92.6104   52.3297  270.2980 C   0  0  0  0  0  0  0  0  0  0  0  0
   93.6343   53.2671  269.9747 C   0  0  0  0  0  0  0  0  0  0  0  0
   93.6567   54.5790  271.1456 S   0  0  0  0  0  0  0  0  0  0  0  0
   92.4470   53.7602  272.0760 C   0  0  0  0  0  0  0  0  0  0  0  0
   91.9259   52.6515  271.4883 C   0  0  0  0  0  0  0  0  0  0  0  0
   92.0631   54.2673  273.2652 N   0  0  0  0  0  0  0  0  0  0  0  0
   92.3938   46.3537  265.8434 H   0  0  0  0  0  0  0  0  0  0  0  0
   91.0044   50.1244  267.2850 H   0  0  0  0  0  0  0  0  0  0  0  0
   97.3310   48.3231  268.2594 H   0  0  0  0  0  0  0  0  0  0  0  0
   96.8796   46.1934  267.1429 H   0  0  0  0  0  0  0  0  0  0  0  0
   89.5669   48.3414  266.7437 H   0  0  0  0  0  0  0  0  0  0  0  0
   91.4799   47.2891  263.8947 H   0  0  0  0  0  0  0  0  0  0  0  0
   88.2719   45.3759  262.0320 H   0  0  0  0  0  0  0  0  0  0  0  0
   86.8643   45.6397  264.0199 H   0  0  0  0  0  0  0  0  0  0  0  0
   87.4214   45.7233  268.7136 H   0  0  0  0  0  0  0  0  0  0  0  0
   87.9356   44.6732  267.3500 H   0  0  0  0  0  0  0  0  0  0  0  0
   89.0558   45.9204  267.9951 H   0  0  0  0  0  0  0  0  0  0  0  0
   94.9066   51.7763  267.2231 H   0  0  0  0  0  0  0  0  0  0  0  0
   95.2201   53.8156  268.5973 H   0  0  0  0  0  0  0  0  0  0  0  0
   91.4064   51.3157  269.0676 H   0  0  0  0  0  0  0  0  0  0  0  0
   92.5084   50.3441  270.1011 H   0  0  0  0  0  0  0  0  0  0  0  0
   91.0932   52.0881  271.8827 H   0  0  0  0  0  0  0  0  0  0  0  0
   92.5514   55.1111  273.4879 H   0  0  0  0  0  0  0  0  0  0  0  0
  1  2  2  0  0  0  0
  1  5  1  0  0  0  0
  2  3  1  0  0  0  0
  2 12  1  0  0  0  0
  3  4  2  0  0  0  0
  4  6  1  0  0  0  0
  4 11  1  0  0  0  0
  5  6  2  0  0  0  0
  5 10  1  0  0  0  0
  6  7  1  0  0  0  0
  7  8  2  0  0  0  0
  8  9  1  0  0  0  0
  9 10  2  0  0  0  0
 11 23  2  0  0  0  0
 11 25  1  0  0  0  0
 12 13  1  0  0  0  0
 13 14  2  0  0  0  0
 13 18  1  0  0  0  0
 14 15  1  0  0  0  0
 15 16  2  0  0  0  0
 16 17  1  0  0  0  0
 17 18  2  0  0  0  0
 18 19  1  0  0  0  0
 19 20  2  0  0  0  0
 19 21  2  0  0  0  0
 19 22  1  0  0  0  0
 23 24  1  0  0  0  0
 24 27  2  0  0  0  0
 25 26  1  0  0  0  0
 26 27  1  0  0  0  0
 26 30  2  0  0  0  0
 27 28  1  0  0  0  0
 28 29  1  0  0  0  0
 29 30  1  0  0  0  0
 29 31  2  0  0  0  0
  1 32  1  0  0  0  0
  3 33  1  0  0  0  0
  8 34  1  0  0  0  0
  9 35  1  0  0  0  0
 12 36  1  0  0  0  0
 14 37  1  0  0  0  0
 16 38  1  0  0  0  0
 17 39  1  0  0  0  0
 22 40  1  0  0  0  0
 22 41  1  0  0  0  0
 22 42  1  0  0  0  0
 23 43  1  0  0  0  0
 24 44  1  0  0  0  0
 25 45  1  0  0  0  0
 25 46  1  0  0  0  0
 30 47  1  0  0  0  0
 31 48  1  0  0  0  0
M  END
> <ID>
68

> <IC50[uM]>
0.068

$$$$
68
  -OEChem-05192314313D
 Structure written by MMmdl.
 48 52  0     1  0  0  0  0  0999 V2000
   92.5906   47.2900  266.3444 C   0  0  0  0  0  0  0  0  0  0  0  0
   91.5700   48.2152  266.5159 C   0  0  0  0  0  0  0  0  0  0  0  0
   91.8167   49.4248  267.1546 C   0  0  0  0  0  0  0  0  0  0  0  0
   93.0889   49.7623  267.6340 C   0  0  0  0  0  0  0  0  0  0  0  0
   93.8920   47.5770  266.8285 C   0  0  0  0  0  0  0  0  0  0  0  0
   94.1480   48.8244  267.4865 C   0  0  0  0  0  0  0  0  0  0  0  0
   95.3850   49.0832  268.0126 N   0  0  0  0  0  0  0  0  0  0  0  0
   96.3430   48.1354  267.8658 C   0  0  0  0  0  0  0  0  0  0  0  0
   96.0897   46.9257  267.2216 C   0  0  0  0  0  0  0  0  0  0  0  0
   94.8705   46.6478  266.6904 N   0  0  0  0  0  0  0  0  0  0  0  0
   93.2613   51.0285  268.3807 C   0  0  0  0  0  0  0  0  0  0  0  0
   90.2520   47.9338  266.1399 N   0  0  0  0  0  0  0  0  0  0  0  0
   89.7015   47.1928  265.0832 C   0  0  0  0  0  0  0  0  0  0  0  0
   90.4532   46.9549  263.9208 C   0  0  0  0  0  0  0  0  0  0  0  0
   89.9543   46.3298  262.8373 N   0  0  0  0  0  0  0  0  0  0  0  0
   88.6785   45.8812  262.8956 C   0  0  0  0  0  0  0  0  0  0  0  0
   87.8678   46.0387  264.0101 C   0  0  0  0  0  0  0  0  0  0  0  0
   88.3733   46.7249  265.1240 C   0  0  0  0  0  0  0  0  0  0  0  0
   87.3145   46.9352  266.5561 S   0  0  0  0  0  0  0  0  0  0  0  0
   87.5376   48.2780  267.1026 O   0  0  0  0  0  0  0  0  0  0  0  0
   85.9614   46.5209  266.1752 O   0  0  0  0  0  0  0  0  0  0  0  0
   88.0033   45.6830  267.7810 C   0  0  0  0  0  0  0  0  0  0  0  0
   94.2676   51.9515  268.0760 C   0  0  0  0  0  0  0  0  0  0  0  0
   94.4607   53.0907  268.8507 C   0  0  0  0  0  0  0  0  0  0  0  0
   92.4286   51.2390  269.4665 C   0  0  0  0  0  0  0  0  0  0  0  0
   92.6104   52.3297  270.2980 C   0  0  0  0  0  0  0  0  0  0  0  0
   93.6343   53.2671  269.9747 C   0  0  3  0  0  0  0  0  0  0  0  0
   93.6567   54.5790  271.1456 S   0  0  0  0  0  0  0  0  0  0  0  0
   92.4470   53.7602  272.0760 C   0  0  0  0  0  0  0  0  0  0  0  0
   91.9259   52.6515  271.4883 C   0  0  0  0  0  0  0  0  0  0  0  0
   92.0631   54.2673  273.2652 N   0  0  0  0  0  0  0  0  0  0  0  0
   92.3938   46.3537  265.8434 H   0  0  0  0  0  0  0  0  0  0  0  0
   91.0044   50.1244  267.2850 H   0  0  0  0  0  0  0  0  0  0  0  0
   97.3310   48.3231  268.2594 H   0  0  0  0  0  0  0  0  0  0  0  0
   96.8796   46.1934  267.1429 H   0  0  0  0  0  0  0  0  0  0  0  0
   94.7000   45.7859  266.2129 H   0  0  0  0  0  0  0  0  0  0  0  0
   91.4799   47.2891  263.8947 H   0  0  0  0  0  0  0  0  0  0  0  0
   88.2719   45.3759  262.0320 H   0  0  0  0  0  0  0  0  0  0  0  0
   86.8643   45.6397  264.0199 H   0  0  0  0  0  0  0  0  0  0  0  0
   87.4214   45.7233  268.7136 H   0  0  0  0  0  0  0  0  0  0  0  0
   87.9356   44.6732  267.3500 H   0  0  0  0  0  0  0  0  0  0  0  0
   89.0558   45.9204  267.9951 H   0  0  0  0  0  0  0  0  0  0  0  0
   94.9066   51.7763  267.2231 H   0  0  0  0  0  0  0  0  0  0  0  0
   95.2201   53.8156  268.5973 H   0  0  0  0  0  0  0  0  0  0  0  0
   91.6272   50.5432  269.6669 H   0  0  0  0  0  0  0  0  0  0  0  0
   94.3489   52.7023  270.5914 H   0  0  0  0  0  0  0  0  0  0  0  0
   91.0932   52.0881  271.8827 H   0  0  0  0  0  0  0  0  0  0  0  0
   92.5514   55.1111  273.4879 H   0  0  0  0  0  0  0  0  0  0  0  0
  1  2  1  0  0  0  0
  1  5  2  0  0  0  0
  2  3  1  0  0  0  0
  2 12  2  3  0  0  0
  3  4  2  0  0  0  0
  4  6  1  0  0  0  0
  4 11  1  0  0  0  0
  5  6  1  0  0  0  0
  5 10  1  0  0  0  0
  6  7  2  0  0  0  0
  7  8  1  0  0  0  0
  8  9  2  0  0  0  0
  9 10  1  0  0  0  0
 11 23  1  0  0  0  0
 11 25  2  0  0  0  0
 12 13  1  0  0  0  0
 13 14  2  0  0  0  0
 13 18  1  0  0  0  0
 14 15  1  0  0  0  0
 15 16  2  0  0  0  0
 16 17  1  0  0  0  0
 17 18  2  0  0  0  0
 18 19  1  0  0  0  0
 19 20  2  0  0  0  0
 19 21  2  0  0  0  0
 19 22  1  0  0  0  0
 23 24  2  0  0  0  0
 24 27  1  0  0  0  0
 25 26  1  0  0  0  0
 26 27  1  0  0  0  0
 26 30  2  0  0  0  0
 27 28  1  0  0  0  0
 28 29  1  0  0  0  0
 29 30  1  0  0  0  0
 29 31  2  0  0  0  0
  1 32  1  0  0  0  0
  3 33  1  0  0  0  0
  8 34  1  0  0  0  0
  9 35  1  0  0  0  0
 10 36  1  0  0  0  0
 14 37  1  0  0  0  0
 16 38  1  0  0  0  0
 17 39  1  0  0  0  0
 22 40  1  0  0  0  0
 22 41  1  0  0  0  0
 22 42  1  0  0  0  0
 23 43  1  0  0  0  0
 24 44  1  0  0  0  0
 25 45  1  0  0  0  0
 27 46  1  0  0  0  0
 30 47  1  0  0  0  0
 31 48  1  0  0  0  0
M  END
> <ID>
68

> <IC50[uM]>
0.068

$$$$
68
  -OEChem-05192314313D
 Structure written by MMmdl.
 48 52  0     0  0  0  0  0  0999 V2000
   92.5906   47.2900  266.3444 C   0  0  0  0  0  0  0  0  0  0  0  0
   91.5700   48.2152  266.5159 C   0  0  0  0  0  0  0  0  0  0  0  0
   91.8167   49.4248  267.1546 C   0  0  0  0  0  0  0  0  0  0  0  0
   93.0889   49.7623  267.6340 C   0  0  0  0  0  0  0  0  0  0  0  0
   93.8920   47.5770  266.8285 C   0  0  0  0  0  0  0  0  0  0  0  0
   94.1480   48.8244  267.4865 C   0  0  0  0  0  0  0  0  0  0  0  0
   95.3850   49.0832  268.0126 N   0  0  0  0  0  0  0  0  0  0  0  0
   96.3430   48.1354  267.8658 C   0  0  0  0  0  0  0  0  0  0  0  0
   96.0897   46.9257  267.2216 C   0  0  0  0  0  0  0  0  0  0  0  0
   94.8705   46.6478  266.6904 N   0  0  0  0  0  0  0  0  0  0  0  0
   93.2613   51.0285  268.3807 C   0  0  0  0  0  0  0  0  0  0  0  0
   90.2520   47.9338  266.1399 N   0  0  0  0  0  0  0  0  0  0  0  0
   89.7015   47.1928  265.0832 C   0  0  0  0  0  0  0  0  0  0  0  0
   90.4532   46.9549  263.9208 C   0  0  0  0  0  0  0  0  0  0  0  0
   89.9543   46.3298  262.8373 N   0  0  0  0  0  0  0  0  0  0  0  0
   88.6785   45.8812  262.8956 C   0  0  0  0  0  0  0  0  0  0  0  0
   87.8678   46.0387  264.0101 C   0  0  0  0  0  0  0  0  0  0  0  0
   88.3733   46.7249  265.1240 C   0  0  0  0  0  0  0  0  0  0  0  0
   87.3145   46.9352  266.5561 S   0  0  0  0  0  0  0  0  0  0  0  0
   87.5376   48.2780  267.1026 O   0  0  0  0  0  0  0  0  0  0  0  0
   85.9614   46.5209  266.1752 O   0  0  0  0  0  0  0  0  0  0  0  0
   88.0033   45.6830  267.7810 C   0  0  0  0  0  0  0  0  0  0  0  0
   94.2676   51.9515  268.0760 C   0  0  0  0  0  0  0  0  0  0  0  0
   94.4607   53.0907  268.8507 C   0  0  0  0  0  0  0  0  0  0  0  0
   92.4286   51.2390  269.4665 C   0  0  0  0  0  0  0  0  0  0  0  0
   92.6104   52.3297  270.2980 C   0  0  0  0  0  0  0  0  0  0  0  0
   93.6343   53.2671  269.9747 C   0  0  0  0  0  0  0  0  0  0  0  0
   93.6567   54.5790  271.1456 S   0  0  0  0  0  0  0  0  0  0  0  0
   92.4470   53.7602  272.0760 C   0  0  0  0  0  0  0  0  0  0  0  0
   91.9259   52.6515  271.4883 C   0  0  0  0  0  0  0  0  0  0  0  0
   92.0631   54.2673  273.2652 N   0  0  0  0  0  0  0  0  0  0  0  0
   92.3938   46.3537  265.8434 H   0  0  0  0  0  0  0  0  0  0  0  0
   91.0044   50.1244  267.2850 H   0  0  0  0  0  0  0  0  0  0  0  0
   97.3310   48.3231  268.2594 H   0  0  0  0  0  0  0  0  0  0  0  0
   96.8796   46.1934  267.1429 H   0  0  0  0  0  0  0  0  0  0  0  0
   94.7000   45.7859  266.2129 H   0  0  0  0  0  0  0  0  0  0  0  0
   91.4799   47.2891  263.8947 H   0  0  0  0  0  0  0  0  0  0  0  0
   88.2719   45.3759  262.0320 H   0  0  0  0  0  0  0  0  0  0  0  0
   86.8643   45.6397  264.0199 H   0  0  0  0  0  0  0  0  0  0  0  0
   87.4214   45.7233  268.7136 H   0  0  0  0  0  0  0  0  0  0  0  0
   87.9356   44.6732  267.3500 H   0  0  0  0  0  0  0  0  0  0  0  0
   89.0558   45.9204  267.9951 H   0  0  0  0  0  0  0  0  0  0  0  0
   95.2167   51.3959  268.0971 H   0  0  0  0  0  0  0  0  0  0  0  0
   94.0700   52.3010  267.0519 H   0  0  0  0  0  0  0  0  0  0  0  0
   95.2201   53.8156  268.5973 H   0  0  0  0  0  0  0  0  0  0  0  0
   91.6272   50.5432  269.6669 H   0  0  0  0  0  0  0  0  0  0  0  0
   91.0932   52.0881  271.8827 H   0  0  0  0  0  0  0  0  0  0  0  0
   92.5514   55.1111  273.4879 H   0  0  0  0  0  0  0  0  0  0  0  0
  1  2  1  0  0  0  0
  1  5  2  0  0  0  0
  2  3  1  0  0  0  0
  2 12  2  3  0  0  0
  3  4  2  0  0  0  0
  4  6  1  0  0  0  0
  4 11  1  0  0  0  0
  5  6  1  0  0  0  0
  5 10  1  0  0  0  0
  6  7  2  0  0  0  0
  7  8  1  0  0  0  0
  8  9  2  0  0  0  0
  9 10  1  0  0  0  0
 11 23  1  0  0  0  0
 11 25  2  0  0  0  0
 12 13  1  0  0  0  0
 13 14  2  0  0  0  0
 13 18  1  0  0  0  0
 14 15  1  0  0  0  0
 15 16  2  0  0  0  0
 16 17  1  0  0  0  0
 17 18  2  0  0  0  0
 18 19  1  0  0  0  0
 19 20  2  0  0  0  0
 19 21  2  0  0  0  0
 19 22  1  0  0  0  0
 23 24  1  0  0  0  0
 24 27  2  0  0  0  0
 25 26  1  0  0  0  0
 26 27  1  0  0  0  0
 26 30  2  0  0  0  0
 27 28  1  0  0  0  0
 28 29  1  0  0  0  0
 29 30  1  0  0  0  0
 29 31  2  0  0  0  0
  1 32  1  0  0  0  0
  3 33  1  0  0  0  0
  8 34  1  0  0  0  0
  9 35  1  0  0  0  0
 10 36  1  0  0  0  0
 14 37  1  0  0  0  0
 16 38  1  0  0  0  0
 17 39  1  0  0  0  0
 22 40  1  0  0  0  0
 22 41  1  0  0  0  0
 22 42  1  0  0  0  0
 23 43  1  0  0  0  0
 23 44  1  0  0  0  0
 24 45  1  0  0  0  0
 25 46  1  0  0  0  0
 30 47  1  0  0  0  0
 31 48  1  0  0  0  0
M  END
> <ID>
68

> <IC50[uM]>
0.068

$$$$
68
  -OEChem-05192314313D
 Structure written by MMmdl.
 48 52  0     0  0  0  0  0  0999 V2000
   92.5906   47.2900  266.3444 C   0  0  0  0  0  0  0  0  0  0  0  0
   91.5700   48.2152  266.5159 C   0  0  0  0  0  0  0  0  0  0  0  0
   91.8167   49.4248  267.1546 C   0  0  0  0  0  0  0  0  0  0  0  0
   93.0889   49.7623  267.6340 C   0  0  0  0  0  0  0  0  0  0  0  0
   93.8920   47.5770  266.8285 C   0  0  0  0  0  0  0  0  0  0  0  0
   94.1480   48.8244  267.4865 C   0  0  0  0  0  0  0  0  0  0  0  0
   95.3850   49.0832  268.0126 N   0  0  0  0  0  0  0  0  0  0  0  0
   96.3430   48.1354  267.8658 C   0  0  0  0  0  0  0  0  0  0  0  0
   96.0897   46.9257  267.2216 C   0  0  0  0  0  0  0  0  0  0  0  0
   94.8705   46.6478  266.6904 N   0  0  0  0  0  0  0  0  0  0  0  0
   93.2613   51.0285  268.3807 C   0  0  0  0  0  0  0  0  0  0  0  0
   90.2520   47.9338  266.1399 N   0  0  0  0  0  0  0  0  0  0  0  0
   89.7015   47.1928  265.0832 C   0  0  0  0  0  0  0  0  0  0  0  0
   90.4532   46.9549  263.9208 C   0  0  0  0  0  0  0  0  0  0  0  0
   89.9543   46.3298  262.8373 N   0  0  0  0  0  0  0  0  0  0  0  0
   88.6785   45.8812  262.8956 C   0  0  0  0  0  0  0  0  0  0  0  0
   87.8678   46.0387  264.0101 C   0  0  0  0  0  0  0  0  0  0  0  0
   88.3733   46.7249  265.1240 C   0  0  0  0  0  0  0  0  0  0  0  0
   87.3145   46.9352  266.5561 S   0  0  0  0  0  0  0  0  0  0  0  0
   87.5376   48.2780  267.1026 O   0  0  0  0  0  0  0  0  0  0  0  0
   85.9614   46.5209  266.1752 O   0  0  0  0  0  0  0  0  0  0  0  0
   88.0033   45.6830  267.7810 C   0  0  0  0  0  0  0  0  0  0  0  0
   94.2676   51.9515  268.0760 C   0  0  0  0  0  0  0  0  0  0  0  0
   94.4607   53.0907  268.8507 C   0  0  0  0  0  0  0  0  0  0  0  0
   92.4286   51.2390  269.4665 C   0  0  0  0  0  0  0  0  0  0  0  0
   92.6104   52.3297  270.2980 C   0  0  0  0  0  0  0  0  0  0  0  0
   93.6343   53.2671  269.9747 C   0  0  0  0  0  0  0  0  0  0  0  0
   93.6567   54.5790  271.1456 S   0  0  0  0  0  0  0  0  0  0  0  0
   92.4470   53.7602  272.0760 C   0  0  0  0  0  0  0  0  0  0  0  0
   91.9259   52.6515  271.4883 C   0  0  0  0  0  0  0  0  0  0  0  0
   92.0631   54.2673  273.2652 N   0  0  0  0  0  0  0  0  0  0  0  0
   92.3938   46.3537  265.8434 H   0  0  0  0  0  0  0  0  0  0  0  0
   91.0044   50.1244  267.2850 H   0  0  0  0  0  0  0  0  0  0  0  0
   97.3310   48.3231  268.2594 H   0  0  0  0  0  0  0  0  0  0  0  0
   96.8796   46.1934  267.1429 H   0  0  0  0  0  0  0  0  0  0  0  0
   94.7000   45.7859  266.2129 H   0  0  0  0  0  0  0  0  0  0  0  0
   91.4799   47.2891  263.8947 H   0  0  0  0  0  0  0  0  0  0  0  0
   88.2719   45.3759  262.0320 H   0  0  0  0  0  0  0  0  0  0  0  0
   86.8643   45.6397  264.0199 H   0  0  0  0  0  0  0  0  0  0  0  0
   87.4214   45.7233  268.7136 H   0  0  0  0  0  0  0  0  0  0  0  0
   87.9356   44.6732  267.3500 H   0  0  0  0  0  0  0  0  0  0  0  0
   89.0558   45.9204  267.9951 H   0  0  0  0  0  0  0  0  0  0  0  0
   94.9066   51.7763  267.2231 H   0  0  0  0  0  0  0  0  0  0  0  0
   95.2201   53.8156  268.5973 H   0  0  0  0  0  0  0  0  0  0  0  0
   91.4064   51.3157  269.0676 H   0  0  0  0  0  0  0  0  0  0  0  0
   92.5084   50.3441  270.1011 H   0  0  0  0  0  0  0  0  0  0  0  0
   91.0932   52.0881  271.8827 H   0  0  0  0  0  0  0  0  0  0  0  0
   92.5514   55.1111  273.4879 H   0  0  0  0  0  0  0  0  0  0  0  0
  1  2  1  0  0  0  0
  1  5  2  0  0  0  0
  2  3  1  0  0  0  0
  2 12  2  3  0  0  0
  3  4  2  0  0  0  0
  4  6  1  0  0  0  0
  4 11  1  0  0  0  0
  5  6  1  0  0  0  0
  5 10  1  0  0  0  0
  6  7  2  0  0  0  0
  7  8  1  0  0  0  0
  8  9  2  0  0  0  0
  9 10  1  0  0  0  0
 11 23  2  0  0  0  0
 11 25  1  0  0  0  0
 12 13  1  0  0  0  0
 13 14  2  0  0  0  0
 13 18  1  0  0  0  0
 14 15  1  0  0  0  0
 15 16  2  0  0  0  0
 16 17  1  0  0  0  0
 17 18  2  0  0  0  0
 18 19  1  0  0  0  0
 19 20  2  0  0  0  0
 19 21  2  0  0  0  0
 19 22  1  0  0  0  0
 23 24  1  0  0  0  0
 24 27  2  0  0  0  0
 25 26  1  0  0  0  0
 26 27  1  0  0  0  0
 26 30  2  0  0  0  0
 27 28  1  0  0  0  0
 28 29  1  0  0  0  0
 29 30  1  0  0  0  0
 29 31  2  0  0  0  0
  1 32  1  0  0  0  0
  3 33  1  0  0  0  0
  8 34  1  0  0  0  0
  9 35  1  0  0  0  0
 10 36  1  0  0  0  0
 14 37  1  0  0  0  0
 16 38  1  0  0  0  0
 17 39  1  0  0  0  0
 22 40  1  0  0  0  0
 22 41  1  0  0  0  0
 22 42  1  0  0  0  0
 23 43  1  0  0  0  0
 24 44  1  0  0  0  0
 25 45  1  0  0  0  0
 25 46  1  0  0  0  0
 30 47  1  0  0  0  0
 31 48  1  0  0  0  0
M  END
> <ID>
68

> <IC50[uM]>
0.068

$$$$
68
  -OEChem-05192314313D
 Structure written by MMmdl.
 48 52  0     1  0  0  0  0  0999 V2000
   92.5906   47.2900  266.3444 C   0  0  0  0  0  0  0  0  0  0  0  0
   91.5700   48.2152  266.5159 C   0  0  0  0  0  0  0  0  0  0  0  0
   91.8167   49.4248  267.1546 C   0  0  0  0  0  0  0  0  0  0  0  0
   93.0889   49.7623  267.6340 C   0  0  0  0  0  0  0  0  0  0  0  0
   93.8920   47.5770  266.8285 C   0  0  0  0  0  0  0  0  0  0  0  0
   94.1480   48.8244  267.4865 C   0  0  3  0  0  0  0  0  0  0  0  0
   95.3850   49.0832  268.0126 N   0  0  0  0  0  0  0  0  0  0  0  0
   96.3430   48.1354  267.8658 C   0  0  0  0  0  0  0  0  0  0  0  0
   96.0897   46.9257  267.2216 C   0  0  0  0  0  0  0  0  0  0  0  0
   94.8705   46.6478  266.6904 N   0  0  0  0  0  0  0  0  0  0  0  0
   93.2613   51.0285  268.3807 C   0  0  0  0  0  0  0  0  0  0  0  0
   90.2520   47.9338  266.1399 N   0  0  0  0  0  0  0  0  0  0  0  0
   89.7015   47.1928  265.0832 C   0  0  0  0  0  0  0  0  0  0  0  0
   90.4532   46.9549  263.9208 C   0  0  0  0  0  0  0  0  0  0  0  0
   89.9543   46.3298  262.8373 N   0  0  0  0  0  0  0  0  0  0  0  0
   88.6785   45.8812  262.8956 C   0  0  0  0  0  0  0  0  0  0  0  0
   87.8678   46.0387  264.0101 C   0  0  0  0  0  0  0  0  0  0  0  0
   88.3733   46.7249  265.1240 C   0  0  0  0  0  0  0  0  0  0  0  0
   87.3145   46.9352  266.5561 S   0  0  0  0  0  0  0  0  0  0  0  0
   87.5376   48.2780  267.1026 O   0  0  0  0  0  0  0  0  0  0  0  0
   85.9614   46.5209  266.1752 O   0  0  0  0  0  0  0  0  0  0  0  0
   88.0033   45.6830  267.7810 C   0  0  0  0  0  0  0  0  0  0  0  0
   94.2676   51.9515  268.0760 C   0  0  0  0  0  0  0  0  0  0  0  0
   94.4607   53.0907  268.8507 C   0  0  0  0  0  0  0  0  0  0  0  0
   92.4286   51.2390  269.4665 C   0  0  0  0  0  0  0  0  0  0  0  0
   92.6104   52.3297  270.2980 C   0  0  0  0  0  0  0  0  0  0  0  0
   93.6343   53.2671  269.9747 C   0  0  0  0  0  0  0  0  0  0  0  0
   93.6567   54.5790  271.1456 S   0  0  0  0  0  0  0  0  0  0  0  0
   92.4470   53.7602  272.0760 C   0  0  0  0  0  0  0  0  0  0  0  0
   91.9259   52.6515  271.4883 C   0  0  0  0  0  0  0  0  0  0  0  0
   92.0631   54.2673  273.2652 N   0  0  0  0  0  0  0  0  0  0  0  0
   92.3938   46.3537  265.8434 H   0  0  0  0  0  0  0  0  0  0  0  0
   91.0044   50.1244  267.2850 H   0  0  0  0  0  0  0  0  0  0  0  0
   94.4415   49.2843  266.5314 H   0  0  0  0  0  0  0  0  0  0  0  0
   97.3310   48.3231  268.2594 H   0  0  0  0  0  0  0  0  0  0  0  0
   96.8796   46.1934  267.1429 H   0  0  0  0  0  0  0  0  0  0  0  0
   91.4799   47.2891  263.8947 H   0  0  0  0  0  0  0  0  0  0  0  0
   88.2719   45.3759  262.0320 H   0  0  0  0  0  0  0  0  0  0  0  0
   86.8643   45.6397  264.0199 H   0  0  0  0  0  0  0  0  0  0  0  0
   87.4214   45.7233  268.7136 H   0  0  0  0  0  0  0  0  0  0  0  0
   87.9356   44.6732  267.3500 H   0  0  0  0  0  0  0  0  0  0  0  0
   89.0558   45.9204  267.9951 H   0  0  0  0  0  0  0  0  0  0  0  0
   94.9066   51.7763  267.2231 H   0  0  0  0  0  0  0  0  0  0  0  0
   95.2201   53.8156  268.5973 H   0  0  0  0  0  0  0  0  0  0  0  0
   91.6272   50.5432  269.6669 H   0  0  0  0  0  0  0  0  0  0  0  0
   91.0932   52.0881  271.8827 H   0  0  0  0  0  0  0  0  0  0  0  0
   92.5730   55.1075  273.4501 H   0  0  0  0  0  0  0  0  0  0  0  0
   91.0842   54.4702  273.2406 H   0  0  0  0  0  0  0  0  0  0  0  0
  1  2  1  0  0  0  0
  1  5  2  0  0  0  0
  2  3  1  0  0  0  0
  2 12  2  3  0  0  0
  3  4  2  0  0  0  0
  4  6  1  0  0  0  0
  4 11  1  0  0  0  0
  5  6  1  0  0  0  0
  5 10  1  0  0  0  0
  6  7  1  0  0  0  0
  7  8  2  0  0  0  0
  8  9  1  0  0  0  0
  9 10  2  0  0  0  0
 11 23  2  0  0  0  0
 11 25  1  0  0  0  0
 12 13  1  0  0  0  0
 13 14  2  0  0  0  0
 13 18  1  0  0  0  0
 14 15  1  0  0  0  0
 15 16  2  0  0  0  0
 16 17  1  0  0  0  0
 17 18  2  0  0  0  0
 18 19  1  0  0  0  0
 19 20  2  0  0  0  0
 19 21  2  0  0  0  0
 19 22  1  0  0  0  0
 23 24  1  0  0  0  0
 24 27  2  0  0  0  0
 25 26  2  0  0  0  0
 26 27  1  0  0  0  0
 26 30  1  0  0  0  0
 27 28  1  0  0  0  0
 28 29  1  0  0  0  0
 29 30  2  0  0  0  0
 29 31  1  0  0  0  0
  1 32  1  0  0  0  0
  3 33  1  0  0  0  0
  6 34  1  0  0  0  0
  8 35  1  0  0  0  0
  9 36  1  0  0  0  0
 14 37  1  0  0  0  0
 16 38  1  0  0  0  0
 17 39  1  0  0  0  0
 22 40  1  0  0  0  0
 22 41  1  0  0  0  0
 22 42  1  0  0  0  0
 23 43  1  0  0  0  0
 24 44  1  0  0  0  0
 25 45  1  0  0  0  0
 30 46  1  0  0  0  0
 31 47  1  0  0  0  0
 31 48  1  0  0  0  0
M  END
> <ID>
68

> <IC50[uM]>
0.068

$$$$
68
  -OEChem-05192314313D
 Structure written by MMmdl.
 48 52  0     0  0  0  0  0  0999 V2000
   92.5906   47.2900  266.3444 C   0  0  0  0  0  0  0  0  0  0  0  0
   91.5700   48.2152  266.5159 C   0  0  0  0  0  0  0  0  0  0  0  0
   91.8167   49.4248  267.1546 C   0  0  0  0  0  0  0  0  0  0  0  0
   93.0889   49.7623  267.6340 C   0  0  0  0  0  0  0  0  0  0  0  0
   93.8920   47.5770  266.8285 C   0  0  0  0  0  0  0  0  0  0  0  0
   94.1480   48.8244  267.4865 C   0  0  0  0  0  0  0  0  0  0  0  0
   95.3850   49.0832  268.0126 N   0  0  0  0  0  0  0  0  0  0  0  0
   96.3430   48.1354  267.8658 C   0  0  0  0  0  0  0  0  0  0  0  0
   96.0897   46.9257  267.2216 C   0  0  0  0  0  0  0  0  0  0  0  0
   94.8705   46.6478  266.6904 N   0  0  0  0  0  0  0  0  0  0  0  0
   93.2613   51.0285  268.3807 C   0  0  0  0  0  0  0  0  0  0  0  0
   90.2520   47.9338  266.1399 N   0  0  0  0  0  0  0  0  0  0  0  0
   89.7015   47.1928  265.0832 C   0  0  0  0  0  0  0  0  0  0  0  0
   90.4532   46.9549  263.9208 C   0  0  0  0  0  0  0  0  0  0  0  0
   89.9543   46.3298  262.8373 N   0  0  0  0  0  0  0  0  0  0  0  0
   88.6785   45.8812  262.8956 C   0  0  0  0  0  0  0  0  0  0  0  0
   87.8678   46.0387  264.0101 C   0  0  0  0  0  0  0  0  0  0  0  0
   88.3733   46.7249  265.1240 C   0  0  0  0  0  0  0  0  0  0  0  0
   87.3145   46.9352  266.5561 S   0  0  0  0  0  0  0  0  0  0  0  0
   87.5376   48.2780  267.1026 O   0  0  0  0  0  0  0  0  0  0  0  0
   85.9614   46.5209  266.1752 O   0  0  0  0  0  0  0  0  0  0  0  0
   88.0033   45.6830  267.7810 C   0  0  0  0  0  0  0  0  0  0  0  0
   94.2676   51.9515  268.0760 C   0  0  0  0  0  0  0  0  0  0  0  0
   94.4607   53.0907  268.8507 C   0  0  0  0  0  0  0  0  0  0  0  0
   92.4286   51.2390  269.4665 C   0  0  0  0  0  0  0  0  0  0  0  0
   92.6104   52.3297  270.2980 C   0  0  0  0  0  0  0  0  0  0  0  0
   93.6343   53.2671  269.9747 C   0  0  0  0  0  0  0  0  0  0  0  0
   93.6567   54.5790  271.1456 S   0  0  0  0  0  0  0  0  0  0  0  0
   92.4470   53.7602  272.0760 C   0  0  0  0  0  0  0  0  0  0  0  0
   91.9259   52.6515  271.4883 C   0  0  0  0  0  0  0  0  0  0  0  0
   92.0631   54.2673  273.2652 N   0  0  0  0  0  0  0  0  0  0  0  0
   92.3938   46.3537  265.8434 H   0  0  0  0  0  0  0  0  0  0  0  0
   91.0044   50.1244  267.2850 H   0  0  0  0  0  0  0  0  0  0  0  0
   97.1665   48.6122  267.3139 H   0  0  0  0  0  0  0  0  0  0  0  0
   96.6815   47.8794  268.8806 H   0  0  0  0  0  0  0  0  0  0  0  0
   96.8796   46.1934  267.1429 H   0  0  0  0  0  0  0  0  0  0  0  0
   91.4799   47.2891  263.8947 H   0  0  0  0  0  0  0  0  0  0  0  0
   88.2719   45.3759  262.0320 H   0  0  0  0  0  0  0  0  0  0  0  0
   86.8643   45.6397  264.0199 H   0  0  0  0  0  0  0  0  0  0  0  0
   87.4214   45.7233  268.7136 H   0  0  0  0  0  0  0  0  0  0  0  0
   87.9356   44.6732  267.3500 H   0  0  0  0  0  0  0  0  0  0  0  0
   89.0558   45.9204  267.9951 H   0  0  0  0  0  0  0  0  0  0  0  0
   94.9066   51.7763  267.2231 H   0  0  0  0  0  0  0  0  0  0  0  0
   95.2201   53.8156  268.5973 H   0  0  0  0  0  0  0  0  0  0  0  0
   91.6272   50.5432  269.6669 H   0  0  0  0  0  0  0  0  0  0  0  0
   91.0932   52.0881  271.8827 H   0  0  0  0  0  0  0  0  0  0  0  0
   92.5730   55.1075  273.4501 H   0  0  0  0  0  0  0  0  0  0  0  0
   91.0842   54.4702  273.2406 H   0  0  0  0  0  0  0  0  0  0  0  0
  1  2  1  0  0  0  0
  1  5  2  0  0  0  0
  2  3  1  0  0  0  0
  2 12  2  3  0  0  0
  3  4  2  0  0  0  0
  4  6  1  0  0  0  0
  4 11  1  0  0  0  0
  5  6  1  0  0  0  0
  5 10  1  0  0  0  0
  6  7  2  0  0  0  0
  7  8  1  0  0  0  0
  8  9  1  0  0  0  0
  9 10  2  0  0  0  0
 11 23  2  0  0  0  0
 11 25  1  0  0  0  0
 12 13  1  0  0  0  0
 13 14  2  0  0  0  0
 13 18  1  0  0  0  0
 14 15  1  0  0  0  0
 15 16  2  0  0  0  0
 16 17  1  0  0  0  0
 17 18  2  0  0  0  0
 18 19  1  0  0  0  0
 19 20  2  0  0  0  0
 19 21  2  0  0  0  0
 19 22  1  0  0  0  0
 23 24  1  0  0  0  0
 24 27  2  0  0  0  0
 25 26  2  0  0  0  0
 26 27  1  0  0  0  0
 26 30  1  0  0  0  0
 27 28  1  0  0  0  0
 28 29  1  0  0  0  0
 29 30  2  0  0  0  0
 29 31  1  0  0  0  0
  1 32  1  0  0  0  0
  3 33  1  0  0  0  0
  8 34  1  0  0  0  0
  8 35  1  0  0  0  0
  9 36  1  0  0  0  0
 14 37  1  0  0  0  0
 16 38  1  0  0  0  0
 17 39  1  0  0  0  0
 22 40  1  0  0  0  0
 22 41  1  0  0  0  0
 22 42  1  0  0  0  0
 23 43  1  0  0  0  0
 24 44  1  0  0  0  0
 25 45  1  0  0  0  0
 30 46  1  0  0  0  0
 31 47  1  0  0  0  0
 31 48  1  0  0  0  0
M  END
> <ID>
68

> <IC50[uM]>
0.068

$$$$
68
  -OEChem-05192314313D
 Structure written by MMmdl.
 48 52  0     1  0  0  0  0  0999 V2000
   92.5906   47.2900  266.3444 C   0  0  0  0  0  0  0  0  0  0  0  0
   91.5700   48.2152  266.5159 C   0  0  0  0  0  0  0  0  0  0  0  0
   91.8167   49.4248  267.1546 C   0  0  0  0  0  0  0  0  0  0  0  0
   93.0889   49.7623  267.6340 C   0  0  0  0  0  0  0  0  0  0  0  0
   93.8920   47.5770  266.8285 C   0  0  0  0  0  0  0  0  0  0  0  0
   94.1480   48.8244  267.4865 C   0  0  3  0  0  0  0  0  0  0  0  0
   95.3850   49.0832  268.0126 N   0  0  0  0  0  0  0  0  0  0  0  0
   96.3430   48.1354  267.8658 C   0  0  0  0  0  0  0  0  0  0  0  0
   96.0897   46.9257  267.2216 C   0  0  0  0  0  0  0  0  0  0  0  0
   94.8705   46.6478  266.6904 N   0  0  0  0  0  0  0  0  0  0  0  0
   93.2613   51.0285  268.3807 C   0  0  0  0  0  0  0  0  0  0  0  0
   90.2520   47.9338  266.1399 N   0  0  0  0  0  0  0  0  0  0  0  0
   89.7015   47.1928  265.0832 C   0  0  0  0  0  0  0  0  0  0  0  0
   90.4532   46.9549  263.9208 C   0  0  0  0  0  0  0  0  0  0  0  0
   89.9543   46.3298  262.8373 N   0  0  0  0  0  0  0  0  0  0  0  0
   88.6785   45.8812  262.8956 C   0  0  0  0  0  0  0  0  0  0  0  0
   87.8678   46.0387  264.0101 C   0  0  0  0  0  0  0  0  0  0  0  0
   88.3733   46.7249  265.1240 C   0  0  0  0  0  0  0  0  0  0  0  0
   87.3145   46.9352  266.5561 S   0  0  0  0  0  0  0  0  0  0  0  0
   87.5376   48.2780  267.1026 O   0  0  0  0  0  0  0  0  0  0  0  0
   85.9614   46.5209  266.1752 O   0  0  0  0  0  0  0  0  0  0  0  0
   88.0033   45.6830  267.7810 C   0  0  0  0  0  0  0  0  0  0  0  0
   94.2676   51.9515  268.0760 C   0  0  0  0  0  0  0  0  0  0  0  0
   94.4607   53.0907  268.8507 C   0  0  0  0  0  0  0  0  0  0  0  0
   92.4286   51.2390  269.4665 C   0  0  0  0  0  0  0  0  0  0  0  0
   92.6104   52.3297  270.2980 C   0  0  0  0  0  0  0  0  0  0  0  0
   93.6343   53.2671  269.9747 C   0  0  0  0  0  0  0  0  0  0  0  0
   93.6567   54.5790  271.1456 S   0  0  0  0  0  0  0  0  0  0  0  0
   92.4470   53.7602  272.0760 C   0  0  0  0  0  0  0  0  0  0  0  0
   91.9259   52.6515  271.4883 C   0  0  0  0  0  0  0  0  0  0  0  0
   92.0631   54.2673  273.2652 N   0  0  0  0  0  0  0  0  0  0  0  0
   92.3938   46.3537  265.8434 H   0  0  0  0  0  0  0  0  0  0  0  0
   91.0044   50.1244  267.2850 H   0  0  0  0  0  0  0  0  0  0  0  0
   94.4415   49.2843  266.5314 H   0  0  0  0  0  0  0  0  0  0  0  0
   97.3310   48.3231  268.2594 H   0  0  0  0  0  0  0  0  0  0  0  0
   96.8796   46.1934  267.1429 H   0  0  0  0  0  0  0  0  0  0  0  0
   91.4799   47.2891  263.8947 H   0  0  0  0  0  0  0  0  0  0  0  0
   88.2719   45.3759  262.0320 H   0  0  0  0  0  0  0  0  0  0  0  0
   86.8643   45.6397  264.0199 H   0  0  0  0  0  0  0  0  0  0  0  0
   87.4214   45.7233  268.7136 H   0  0  0  0  0  0  0  0  0  0  0  0
   87.9356   44.6732  267.3500 H   0  0  0  0  0  0  0  0  0  0  0  0
   89.0558   45.9204  267.9951 H   0  0  0  0  0  0  0  0  0  0  0  0
   94.9066   51.7763  267.2231 H   0  0  0  0  0  0  0  0  0  0  0  0
   95.2201   53.8156  268.5973 H   0  0  0  0  0  0  0  0  0  0  0  0
   91.6272   50.5432  269.6669 H   0  0  0  0  0  0  0  0  0  0  0  0
   90.8670   52.8350  271.2537 H   0  0  0  0  0  0  0  0  0  0  0  0
   92.0054   51.8054  272.1867 H   0  0  0  0  0  0  0  0  0  0  0  0
   92.5514   55.1111  273.4879 H   0  0  0  0  0  0  0  0  0  0  0  0
  1  2  1  0  0  0  0
  1  5  2  0  0  0  0
  2  3  1  0  0  0  0
  2 12  2  3  0  0  0
  3  4  2  0  0  0  0
  4  6  1  0  0  0  0
  4 11  1  0  0  0  0
  5  6  1  0  0  0  0
  5 10  1  0  0  0  0
  6  7  1  0  0  0  0
  7  8  2  0  0  0  0
  8  9  1  0  0  0  0
  9 10  2  0  0  0  0
 11 23  2  0  0  0  0
 11 25  1  0  0  0  0
 12 13  1  0  0  0  0
 13 14  2  0  0  0  0
 13 18  1  0  0  0  0
 14 15  1  0  0  0  0
 15 16  2  0  0  0  0
 16 17  1  0  0  0  0
 17 18  2  0  0  0  0
 18 19  1  0  0  0  0
 19 20  2  0  0  0  0
 19 21  2  0  0  0  0
 19 22  1  0  0  0  0
 23 24  1  0  0  0  0
 24 27  2  0  0  0  0
 25 26  2  0  0  0  0
 26 27  1  0  0  0  0
 26 30  1  0  0  0  0
 27 28  1  0  0  0  0
 28 29  1  0  0  0  0
 29 30  1  0  0  0  0
 29 31  2  0  0  0  0
  1 32  1  0  0  0  0
  3 33  1  0  0  0  0
  6 34  1  0  0  0  0
  8 35  1  0  0  0  0
  9 36  1  0  0  0  0
 14 37  1  0  0  0  0
 16 38  1  0  0  0  0
 17 39  1  0  0  0  0
 22 40  1  0  0  0  0
 22 41  1  0  0  0  0
 22 42  1  0  0  0  0
 23 43  1  0  0  0  0
 24 44  1  0  0  0  0
 25 45  1  0  0  0  0
 30 46  1  0  0  0  0
 30 47  1  0  0  0  0
 31 48  1  0  0  0  0
M  END
> <ID>
68

> <IC50[uM]>
0.068

$$$$
68
  -OEChem-05192314313D
 Structure written by MMmdl.
 48 52  0     0  0  0  0  0  0999 V2000
   92.5906   47.2900  266.3444 C   0  0  0  0  0  0  0  0  0  0  0  0
   91.5700   48.2152  266.5159 C   0  0  0  0  0  0  0  0  0  0  0  0
   91.8167   49.4248  267.1546 C   0  0  0  0  0  0  0  0  0  0  0  0
   93.0889   49.7623  267.6340 C   0  0  0  0  0  0  0  0  0  0  0  0
   93.8920   47.5770  266.8285 C   0  0  0  0  0  0  0  0  0  0  0  0
   94.1480   48.8244  267.4865 C   0  0  0  0  0  0  0  0  0  0  0  0
   95.3850   49.0832  268.0126 N   0  0  0  0  0  0  0  0  0  0  0  0
   96.3430   48.1354  267.8658 C   0  0  0  0  0  0  0  0  0  0  0  0
   96.0897   46.9257  267.2216 C   0  0  0  0  0  0  0  0  0  0  0  0
   94.8705   46.6478  266.6904 N   0  0  0  0  0  0  0  0  0  0  0  0
   93.2613   51.0285  268.3807 C   0  0  0  0  0  0  0  0  0  0  0  0
   90.2520   47.9338  266.1399 N   0  0  0  0  0  0  0  0  0  0  0  0
   89.7015   47.1928  265.0832 C   0  0  0  0  0  0  0  0  0  0  0  0
   90.4532   46.9549  263.9208 C   0  0  0  0  0  0  0  0  0  0  0  0
   89.9543   46.3298  262.8373 N   0  0  0  0  0  0  0  0  0  0  0  0
   88.6785   45.8812  262.8956 C   0  0  0  0  0  0  0  0  0  0  0  0
   87.8678   46.0387  264.0101 C   0  0  0  0  0  0  0  0  0  0  0  0
   88.3733   46.7249  265.1240 C   0  0  0  0  0  0  0  0  0  0  0  0
   87.3145   46.9352  266.5561 S   0  0  0  0  0  0  0  0  0  0  0  0
   87.5376   48.2780  267.1026 O   0  0  0  0  0  0  0  0  0  0  0  0
   85.9614   46.5209  266.1752 O   0  0  0  0  0  0  0  0  0  0  0  0
   88.0033   45.6830  267.7810 C   0  0  0  0  0  0  0  0  0  0  0  0
   94.2676   51.9515  268.0760 C   0  0  0  0  0  0  0  0  0  0  0  0
   94.4607   53.0907  268.8507 C   0  0  0  0  0  0  0  0  0  0  0  0
   92.4286   51.2390  269.4665 C   0  0  0  0  0  0  0  0  0  0  0  0
   92.6104   52.3297  270.2980 C   0  0  0  0  0  0  0  0  0  0  0  0
   93.6343   53.2671  269.9747 C   0  0  0  0  0  0  0  0  0  0  0  0
   93.6567   54.5790  271.1456 S   0  0  0  0  0  0  0  0  0  0  0  0
   92.4470   53.7602  272.0760 C   0  0  0  0  0  0  0  0  0  0  0  0
   91.9259   52.6515  271.4883 C   0  0  0  0  0  0  0  0  0  0  0  0
   92.0631   54.2673  273.2652 N   0  0  0  0  0  0  0  0  0  0  0  0
   92.3938   46.3537  265.8434 H   0  0  0  0  0  0  0  0  0  0  0  0
   91.0044   50.1244  267.2850 H   0  0  0  0  0  0  0  0  0  0  0  0
   97.1665   48.6122  267.3139 H   0  0  0  0  0  0  0  0  0  0  0  0
   96.6815   47.8794  268.8806 H   0  0  0  0  0  0  0  0  0  0  0  0
   96.8796   46.1934  267.1429 H   0  0  0  0  0  0  0  0  0  0  0  0
   91.4799   47.2891  263.8947 H   0  0  0  0  0  0  0  0  0  0  0  0
   88.2719   45.3759  262.0320 H   0  0  0  0  0  0  0  0  0  0  0  0
   86.8643   45.6397  264.0199 H   0  0  0  0  0  0  0  0  0  0  0  0
   87.4214   45.7233  268.7136 H   0  0  0  0  0  0  0  0  0  0  0  0
   87.9356   44.6732  267.3500 H   0  0  0  0  0  0  0  0  0  0  0  0
   89.0558   45.9204  267.9951 H   0  0  0  0  0  0  0  0  0  0  0  0
   94.9066   51.7763  267.2231 H   0  0  0  0  0  0  0  0  0  0  0  0
   95.2201   53.8156  268.5973 H   0  0  0  0  0  0  0  0  0  0  0  0
   91.6272   50.5432  269.6669 H   0  0  0  0  0  0  0  0  0  0  0  0
   90.8670   52.8350  271.2537 H   0  0  0  0  0  0  0  0  0  0  0  0
   92.0054   51.8054  272.1867 H   0  0  0  0  0  0  0  0  0  0  0  0
   92.5514   55.1111  273.4879 H   0  0  0  0  0  0  0  0  0  0  0  0
  1  2  1  0  0  0  0
  1  5  2  0  0  0  0
  2  3  1  0  0  0  0
  2 12  2  3  0  0  0
  3  4  2  0  0  0  0
  4  6  1  0  0  0  0
  4 11  1  0  0  0  0
  5  6  1  0  0  0  0
  5 10  1  0  0  0  0
  6  7  2  0  0  0  0
  7  8  1  0  0  0  0
  8  9  1  0  0  0  0
  9 10  2  0  0  0  0
 11 23  2  0  0  0  0
 11 25  1  0  0  0  0
 12 13  1  0  0  0  0
 13 14  2  0  0  0  0
 13 18  1  0  0  0  0
 14 15  1  0  0  0  0
 15 16  2  0  0  0  0
 16 17  1  0  0  0  0
 17 18  2  0  0  0  0
 18 19  1  0  0  0  0
 19 20  2  0  0  0  0
 19 21  2  0  0  0  0
 19 22  1  0  0  0  0
 23 24  1  0  0  0  0
 24 27  2  0  0  0  0
 25 26  2  0  0  0  0
 26 27  1  0  0  0  0
 26 30  1  0  0  0  0
 27 28  1  0  0  0  0
 28 29  1  0  0  0  0
 29 30  1  0  0  0  0
 29 31  2  0  0  0  0
  1 32  1  0  0  0  0
  3 33  1  0  0  0  0
  8 34  1  0  0  0  0
  8 35  1  0  0  0  0
  9 36  1  0  0  0  0
 14 37  1  0  0  0  0
 16 38  1  0  0  0  0
 17 39  1  0  0  0  0
 22 40  1  0  0  0  0
 22 41  1  0  0  0  0
 22 42  1  0  0  0  0
 23 43  1  0  0  0  0
 24 44  1  0  0  0  0
 25 45  1  0  0  0  0
 30 46  1  0  0  0  0
 30 47  1  0  0  0  0
 31 48  1  0  0  0  0
M  END
> <ID>
68

> <IC50[uM]>
0.068

$$$$
68
  -OEChem-05192314313D
 Structure written by MMmdl.
 48 52  0     1  0  0  0  0  0999 V2000
   92.5906   47.2900  266.3444 C   0  0  0  0  0  0  0  0  0  0  0  0
   91.5700   48.2152  266.5159 C   0  0  0  0  0  0  0  0  0  0  0  0
   91.8167   49.4248  267.1546 C   0  0  0  0  0  0  0  0  0  0  0  0
   93.0889   49.7623  267.6340 C   0  0  0  0  0  0  0  0  0  0  0  0
   93.8920   47.5770  266.8285 C   0  0  0  0  0  0  0  0  0  0  0  0
   94.1480   48.8244  267.4865 C   0  0  0  0  0  0  0  0  0  0  0  0
   95.3850   49.0832  268.0126 N   0  0  0  0  0  0  0  0  0  0  0  0
   96.3430   48.1354  267.8658 C   0  0  0  0  0  0  0  0  0  0  0  0
   96.0897   46.9257  267.2216 C   0  0  0  0  0  0  0  0  0  0  0  0
   94.8705   46.6478  266.6904 N   0  0  0  0  0  0  0  0  0  0  0  0
   93.2613   51.0285  268.3807 C   0  0  0  0  0  0  0  0  0  0  0  0
   90.2520   47.9338  266.1399 N   0  0  0  0  0  0  0  0  0  0  0  0
   89.7015   47.1928  265.0832 C   0  0  0  0  0  0  0  0  0  0  0  0
   90.4532   46.9549  263.9208 C   0  0  0  0  0  0  0  0  0  0  0  0
   89.9543   46.3298  262.8373 N   0  0  0  0  0  0  0  0  0  0  0  0
   88.6785   45.8812  262.8956 C   0  0  0  0  0  0  0  0  0  0  0  0
   87.8678   46.0387  264.0101 C   0  0  0  0  0  0  0  0  0  0  0  0
   88.3733   46.7249  265.1240 C   0  0  0  0  0  0  0  0  0  0  0  0
   87.3145   46.9352  266.5561 S   0  0  0  0  0  0  0  0  0  0  0  0
   87.5376   48.2780  267.1026 O   0  0  0  0  0  0  0  0  0  0  0  0
   85.9614   46.5209  266.1752 O   0  0  0  0  0  0  0  0  0  0  0  0
   88.0033   45.6830  267.7810 C   0  0  0  0  0  0  0  0  0  0  0  0
   94.2676   51.9515  268.0760 C   0  0  0  0  0  0  0  0  0  0  0  0
   94.4607   53.0907  268.8507 C   0  0  0  0  0  0  0  0  0  0  0  0
   92.4286   51.2390  269.4665 C   0  0  0  0  0  0  0  0  0  0  0  0
   92.6104   52.3297  270.2980 C   0  0  0  0  0  0  0  0  0  0  0  0
   93.6343   53.2671  269.9747 C   0  0  3  0  0  0  0  0  0  0  0  0
   93.6567   54.5790  271.1456 S   0  0  0  0  0  0  0  0  0  0  0  0
   92.4470   53.7602  272.0760 C   0  0  0  0  0  0  0  0  0  0  0  0
   91.9259   52.6515  271.4883 C   0  0  0  0  0  0  0  0  0  0  0  0
   92.0631   54.2673  273.2652 N   0  0  0  0  0  0  0  0  0  0  0  0
   92.2651   46.3621  266.8373 H   0  0  0  0  0  0  0  0  0  0  0  0
   92.6846   47.1168  265.2622 H   0  0  0  0  0  0  0  0  0  0  0  0
   91.0044   50.1244  267.2850 H   0  0  0  0  0  0  0  0  0  0  0  0
   97.3310   48.3231  268.2594 H   0  0  0  0  0  0  0  0  0  0  0  0
   96.8796   46.1934  267.1429 H   0  0  0  0  0  0  0  0  0  0  0  0
   91.4799   47.2891  263.8947 H   0  0  0  0  0  0  0  0  0  0  0  0
   88.2719   45.3759  262.0320 H   0  0  0  0  0  0  0  0  0  0  0  0
   86.8643   45.6397  264.0199 H   0  0  0  0  0  0  0  0  0  0  0  0
   87.4214   45.7233  268.7136 H   0  0  0  0  0  0  0  0  0  0  0  0
   87.9356   44.6732  267.3500 H   0  0  0  0  0  0  0  0  0  0  0  0
   89.0558   45.9204  267.9951 H   0  0  0  0  0  0  0  0  0  0  0  0
   94.9066   51.7763  267.2231 H   0  0  0  0  0  0  0  0  0  0  0  0
   95.2201   53.8156  268.5973 H   0  0  0  0  0  0  0  0  0  0  0  0
   91.6272   50.5432  269.6669 H   0  0  0  0  0  0  0  0  0  0  0  0
   94.3489   52.7023  270.5914 H   0  0  0  0  0  0  0  0  0  0  0  0
   91.0932   52.0881  271.8827 H   0  0  0  0  0  0  0  0  0  0  0  0
   92.5514   55.1111  273.4879 H   0  0  0  0  0  0  0  0  0  0  0  0
  1  2  1  0  0  0  0
  1  5  1  0  0  0  0
  2  3  1  0  0  0  0
  2 12  2  3  0  0  0
  3  4  2  0  0  0  0
  4  6  1  0  0  0  0
  4 11  1  0  0  0  0
  5  6  2  0  0  0  0
  5 10  1  0  0  0  0
  6  7  1  0  0  0  0
  7  8  2  0  0  0  0
  8  9  1  0  0  0  0
  9 10  2  0  0  0  0
 11 23  1  0  0  0  0
 11 25  2  0  0  0  0
 12 13  1  0  0  0  0
 13 14  2  0  0  0  0
 13 18  1  0  0  0  0
 14 15  1  0  0  0  0
 15 16  2  0  0  0  0
 16 17  1  0  0  0  0
 17 18  2  0  0  0  0
 18 19  1  0  0  0  0
 19 20  2  0  0  0  0
 19 21  2  0  0  0  0
 19 22  1  0  0  0  0
 23 24  2  0  0  0  0
 24 27  1  0  0  0  0
 25 26  1  0  0  0  0
 26 27  1  0  0  0  0
 26 30  2  0  0  0  0
 27 28  1  0  0  0  0
 28 29  1  0  0  0  0
 29 30  1  0  0  0  0
 29 31  2  0  0  0  0
  1 32  1  0  0  0  0
  1 33  1  0  0  0  0
  3 34  1  0  0  0  0
  8 35  1  0  0  0  0
  9 36  1  0  0  0  0
 14 37  1  0  0  0  0
 16 38  1  0  0  0  0
 17 39  1  0  0  0  0
 22 40  1  0  0  0  0
 22 41  1  0  0  0  0
 22 42  1  0  0  0  0
 23 43  1  0  0  0  0
 24 44  1  0  0  0  0
 25 45  1  0  0  0  0
 27 46  1  0  0  0  0
 30 47  1  0  0  0  0
 31 48  1  0  0  0  0
M  END
> <ID>
68

> <IC50[uM]>
0.068

$$$$
68
  -OEChem-05192314313D
 Structure written by MMmdl.
 48 52  0     0  0  0  0  0  0999 V2000
   92.5906   47.2900  266.3444 C   0  0  0  0  0  0  0  0  0  0  0  0
   91.5700   48.2152  266.5159 C   0  0  0  0  0  0  0  0  0  0  0  0
   91.8167   49.4248  267.1546 C   0  0  0  0  0  0  0  0  0  0  0  0
   93.0889   49.7623  267.6340 C   0  0  0  0  0  0  0  0  0  0  0  0
   93.8920   47.5770  266.8285 C   0  0  0  0  0  0  0  0  0  0  0  0
   94.1480   48.8244  267.4865 C   0  0  0  0  0  0  0  0  0  0  0  0
   95.3850   49.0832  268.0126 N   0  0  0  0  0  0  0  0  0  0  0  0
   96.3430   48.1354  267.8658 C   0  0  0  0  0  0  0  0  0  0  0  0
   96.0897   46.9257  267.2216 C   0  0  0  0  0  0  0  0  0  0  0  0
   94.8705   46.6478  266.6904 N   0  0  0  0  0  0  0  0  0  0  0  0
   93.2613   51.0285  268.3807 C   0  0  0  0  0  0  0  0  0  0  0  0
   90.2520   47.9338  266.1399 N   0  0  0  0  0  0  0  0  0  0  0  0
   89.7015   47.1928  265.0832 C   0  0  0  0  0  0  0  0  0  0  0  0
   90.4532   46.9549  263.9208 C   0  0  0  0  0  0  0  0  0  0  0  0
   89.9543   46.3298  262.8373 N   0  0  0  0  0  0  0  0  0  0  0  0
   88.6785   45.8812  262.8956 C   0  0  0  0  0  0  0  0  0  0  0  0
   87.8678   46.0387  264.0101 C   0  0  0  0  0  0  0  0  0  0  0  0
   88.3733   46.7249  265.1240 C   0  0  0  0  0  0  0  0  0  0  0  0
   87.3145   46.9352  266.5561 S   0  0  0  0  0  0  0  0  0  0  0  0
   87.5376   48.2780  267.1026 O   0  0  0  0  0  0  0  0  0  0  0  0
   85.9614   46.5209  266.1752 O   0  0  0  0  0  0  0  0  0  0  0  0
   88.0033   45.6830  267.7810 C   0  0  0  0  0  0  0  0  0  0  0  0
   94.2676   51.9515  268.0760 C   0  0  0  0  0  0  0  0  0  0  0  0
   94.4607   53.0907  268.8507 C   0  0  0  0  0  0  0  0  0  0  0  0
   92.4286   51.2390  269.4665 C   0  0  0  0  0  0  0  0  0  0  0  0
   92.6104   52.3297  270.2980 C   0  0  0  0  0  0  0  0  0  0  0  0
   93.6343   53.2671  269.9747 C   0  0  0  0  0  0  0  0  0  0  0  0
   93.6567   54.5790  271.1456 S   0  0  0  0  0  0  0  0  0  0  0  0
   92.4470   53.7602  272.0760 C   0  0  0  0  0  0  0  0  0  0  0  0
   91.9259   52.6515  271.4883 C   0  0  0  0  0  0  0  0  0  0  0  0
   92.0631   54.2673  273.2652 N   0  0  0  0  0  0  0  0  0  0  0  0
   92.2651   46.3621  266.8373 H   0  0  0  0  0  0  0  0  0  0  0  0
   92.6846   47.1168  265.2622 H   0  0  0  0  0  0  0  0  0  0  0  0
   91.0044   50.1244  267.2850 H   0  0  0  0  0  0  0  0  0  0  0  0
   97.3310   48.3231  268.2594 H   0  0  0  0  0  0  0  0  0  0  0  0
   96.8796   46.1934  267.1429 H   0  0  0  0  0  0  0  0  0  0  0  0
   91.4799   47.2891  263.8947 H   0  0  0  0  0  0  0  0  0  0  0  0
   88.2719   45.3759  262.0320 H   0  0  0  0  0  0  0  0  0  0  0  0
   86.8643   45.6397  264.0199 H   0  0  0  0  0  0  0  0  0  0  0  0
   87.4214   45.7233  268.7136 H   0  0  0  0  0  0  0  0  0  0  0  0
   87.9356   44.6732  267.3500 H   0  0  0  0  0  0  0  0  0  0  0  0
   89.0558   45.9204  267.9951 H   0  0  0  0  0  0  0  0  0  0  0  0
   95.2167   51.3959  268.0971 H   0  0  0  0  0  0  0  0  0  0  0  0
   94.0700   52.3010  267.0519 H   0  0  0  0  0  0  0  0  0  0  0  0
   95.2201   53.8156  268.5973 H   0  0  0  0  0  0  0  0  0  0  0  0
   91.6272   50.5432  269.6669 H   0  0  0  0  0  0  0  0  0  0  0  0
   91.0932   52.0881  271.8827 H   0  0  0  0  0  0  0  0  0  0  0  0
   92.5514   55.1111  273.4879 H   0  0  0  0  0  0  0  0  0  0  0  0
  1  2  1  0  0  0  0
  1  5  1  0  0  0  0
  2  3  1  0  0  0  0
  2 12  2  3  0  0  0
  3  4  2  0  0  0  0
  4  6  1  0  0  0  0
  4 11  1  0  0  0  0
  5  6  2  0  0  0  0
  5 10  1  0  0  0  0
  6  7  1  0  0  0  0
  7  8  2  0  0  0  0
  8  9  1  0  0  0  0
  9 10  2  0  0  0  0
 11 23  1  0  0  0  0
 11 25  2  0  0  0  0
 12 13  1  0  0  0  0
 13 14  2  0  0  0  0
 13 18  1  0  0  0  0
 14 15  1  0  0  0  0
 15 16  2  0  0  0  0
 16 17  1  0  0  0  0
 17 18  2  0  0  0  0
 18 19  1  0  0  0  0
 19 20  2  0  0  0  0
 19 21  2  0  0  0  0
 19 22  1  0  0  0  0
 23 24  1  0  0  0  0
 24 27  2  0  0  0  0
 25 26  1  0  0  0  0
 26 27  1  0  0  0  0
 26 30  2  0  0  0  0
 27 28  1  0  0  0  0
 28 29  1  0  0  0  0
 29 30  1  0  0  0  0
 29 31  2  0  0  0  0
  1 32  1  0  0  0  0
  1 33  1  0  0  0  0
  3 34  1  0  0  0  0
  8 35  1  0  0  0  0
  9 36  1  0  0  0  0
 14 37  1  0  0  0  0
 16 38  1  0  0  0  0
 17 39  1  0  0  0  0
 22 40  1  0  0  0  0
 22 41  1  0  0  0  0
 22 42  1  0  0  0  0
 23 43  1  0  0  0  0
 23 44  1  0  0  0  0
 24 45  1  0  0  0  0
 25 46  1  0  0  0  0
 30 47  1  0  0  0  0
 31 48  1  0  0  0  0
M  END
> <ID>
68

> <IC50[uM]>
0.068

$$$$
68
  -OEChem-05192314313D
 Structure written by MMmdl.
 48 52  0     0  0  0  0  0  0999 V2000
   92.5906   47.2900  266.3444 C   0  0  0  0  0  0  0  0  0  0  0  0
   91.5700   48.2152  266.5159 C   0  0  0  0  0  0  0  0  0  0  0  0
   91.8167   49.4248  267.1546 C   0  0  0  0  0  0  0  0  0  0  0  0
   93.0889   49.7623  267.6340 C   0  0  0  0  0  0  0  0  0  0  0  0
   93.8920   47.5770  266.8285 C   0  0  0  0  0  0  0  0  0  0  0  0
   94.1480   48.8244  267.4865 C   0  0  0  0  0  0  0  0  0  0  0  0
   95.3850   49.0832  268.0126 N   0  0  0  0  0  0  0  0  0  0  0  0
   96.3430   48.1354  267.8658 C   0  0  0  0  0  0  0  0  0  0  0  0
   96.0897   46.9257  267.2216 C   0  0  0  0  0  0  0  0  0  0  0  0
   94.8705   46.6478  266.6904 N   0  0  0  0  0  0  0  0  0  0  0  0
   93.2613   51.0285  268.3807 C   0  0  0  0  0  0  0  0  0  0  0  0
   90.2520   47.9338  266.1399 N   0  0  0  0  0  0  0  0  0  0  0  0
   89.7015   47.1928  265.0832 C   0  0  0  0  0  0  0  0  0  0  0  0
   90.4532   46.9549  263.9208 C   0  0  0  0  0  0  0  0  0  0  0  0
   89.9543   46.3298  262.8373 N   0  0  0  0  0  0  0  0  0  0  0  0
   88.6785   45.8812  262.8956 C   0  0  0  0  0  0  0  0  0  0  0  0
   87.8678   46.0387  264.0101 C   0  0  0  0  0  0  0  0  0  0  0  0
   88.3733   46.7249  265.1240 C   0  0  0  0  0  0  0  0  0  0  0  0
   87.3145   46.9352  266.5561 S   0  0  0  0  0  0  0  0  0  0  0  0
   87.5376   48.2780  267.1026 O   0  0  0  0  0  0  0  0  0  0  0  0
   85.9614   46.5209  266.1752 O   0  0  0  0  0  0  0  0  0  0  0  0
   88.0033   45.6830  267.7810 C   0  0  0  0  0  0  0  0  0  0  0  0
   94.2676   51.9515  268.0760 C   0  0  0  0  0  0  0  0  0  0  0  0
   94.4607   53.0907  268.8507 C   0  0  0  0  0  0  0  0  0  0  0  0
   92.4286   51.2390  269.4665 C   0  0  0  0  0  0  0  0  0  0  0  0
   92.6104   52.3297  270.2980 C   0  0  0  0  0  0  0  0  0  0  0  0
   93.6343   53.2671  269.9747 C   0  0  0  0  0  0  0  0  0  0  0  0
   93.6567   54.5790  271.1456 S   0  0  0  0  0  0  0  0  0  0  0  0
   92.4470   53.7602  272.0760 C   0  0  0  0  0  0  0  0  0  0  0  0
   91.9259   52.6515  271.4883 C   0  0  0  0  0  0  0  0  0  0  0  0
   92.0631   54.2673  273.2652 N   0  0  0  0  0  0  0  0  0  0  0  0
   92.2651   46.3621  266.8373 H   0  0  0  0  0  0  0  0  0  0  0  0
   92.6846   47.1168  265.2622 H   0  0  0  0  0  0  0  0  0  0  0  0
   91.0044   50.1244  267.2850 H   0  0  0  0  0  0  0  0  0  0  0  0
   97.3310   48.3231  268.2594 H   0  0  0  0  0  0  0  0  0  0  0  0
   96.8796   46.1934  267.1429 H   0  0  0  0  0  0  0  0  0  0  0  0
   91.4799   47.2891  263.8947 H   0  0  0  0  0  0  0  0  0  0  0  0
   88.2719   45.3759  262.0320 H   0  0  0  0  0  0  0  0  0  0  0  0
   86.8643   45.6397  264.0199 H   0  0  0  0  0  0  0  0  0  0  0  0
   87.4214   45.7233  268.7136 H   0  0  0  0  0  0  0  0  0  0  0  0
   87.9356   44.6732  267.3500 H   0  0  0  0  0  0  0  0  0  0  0  0
   89.0558   45.9204  267.9951 H   0  0  0  0  0  0  0  0  0  0  0  0
   94.9066   51.7763  267.2231 H   0  0  0  0  0  0  0  0  0  0  0  0
   95.2201   53.8156  268.5973 H   0  0  0  0  0  0  0  0  0  0  0  0
   91.4064   51.3157  269.0676 H   0  0  0  0  0  0  0  0  0  0  0  0
   92.5084   50.3441  270.1011 H   0  0  0  0  0  0  0  0  0  0  0  0
   91.0932   52.0881  271.8827 H   0  0  0  0  0  0  0  0  0  0  0  0
   92.5514   55.1111  273.4879 H   0  0  0  0  0  0  0  0  0  0  0  0
  1  2  1  0  0  0  0
  1  5  1  0  0  0  0
  2  3  1  0  0  0  0
  2 12  2  3  0  0  0
  3  4  2  0  0  0  0
  4  6  1  0  0  0  0
  4 11  1  0  0  0  0
  5  6  2  0  0  0  0
  5 10  1  0  0  0  0
  6  7  1  0  0  0  0
  7  8  2  0  0  0  0
  8  9  1  0  0  0  0
  9 10  2  0  0  0  0
 11 23  2  0  0  0  0
 11 25  1  0  0  0  0
 12 13  1  0  0  0  0
 13 14  2  0  0  0  0
 13 18  1  0  0  0  0
 14 15  1  0  0  0  0
 15 16  2  0  0  0  0
 16 17  1  0  0  0  0
 17 18  2  0  0  0  0
 18 19  1  0  0  0  0
 19 20  2  0  0  0  0
 19 21  2  0  0  0  0
 19 22  1  0  0  0  0
 23 24  1  0  0  0  0
 24 27  2  0  0  0  0
 25 26  1  0  0  0  0
 26 27  1  0  0  0  0
 26 30  2  0  0  0  0
 27 28  1  0  0  0  0
 28 29  1  0  0  0  0
 29 30  1  0  0  0  0
 29 31  2  0  0  0  0
  1 32  1  0  0  0  0
  1 33  1  0  0  0  0
  3 34  1  0  0  0  0
  8 35  1  0  0  0  0
  9 36  1  0  0  0  0
 14 37  1  0  0  0  0
 16 38  1  0  0  0  0
 17 39  1  0  0  0  0
 22 40  1  0  0  0  0
 22 41  1  0  0  0  0
 22 42  1  0  0  0  0
 23 43  1  0  0  0  0
 24 44  1  0  0  0  0
 25 45  1  0  0  0  0
 25 46  1  0  0  0  0
 30 47  1  0  0  0  0
 31 48  1  0  0  0  0
M  END
> <ID>
68

> <IC50[uM]>
0.068

$$$$
68
  -OEChem-05192314313D
 Structure written by MMmdl.
 48 52  0     1  0  0  0  0  0999 V2000
   92.5906   47.2900  266.3444 C   0  0  0  0  0  0  0  0  0  0  0  0
   91.5700   48.2152  266.5159 C   0  0  0  0  0  0  0  0  0  0  0  0
   91.8167   49.4248  267.1546 C   0  0  0  0  0  0  0  0  0  0  0  0
   93.0889   49.7623  267.6340 C   0  0  0  0  0  0  0  0  0  0  0  0
   93.8920   47.5770  266.8285 C   0  0  0  0  0  0  0  0  0  0  0  0
   94.1480   48.8244  267.4865 C   0  0  0  0  0  0  0  0  0  0  0  0
   95.3850   49.0832  268.0126 N   0  0  0  0  0  0  0  0  0  0  0  0
   96.3430   48.1354  267.8658 C   0  0  0  0  0  0  0  0  0  0  0  0
   96.0897   46.9257  267.2216 C   0  0  0  0  0  0  0  0  0  0  0  0
   94.8705   46.6478  266.6904 N   0  0  0  0  0  0  0  0  0  0  0  0
   93.2613   51.0285  268.3807 C   0  0  0  0  0  0  0  0  0  0  0  0
   90.2520   47.9338  266.1399 N   0  0  0  0  0  0  0  0  0  0  0  0
   89.7015   47.1928  265.0832 C   0  0  0  0  0  0  0  0  0  0  0  0
   90.4532   46.9549  263.9208 C   0  0  0  0  0  0  0  0  0  0  0  0
   89.9543   46.3298  262.8373 N   0  0  0  0  0  0  0  0  0  0  0  0
   88.6785   45.8812  262.8956 C   0  0  0  0  0  0  0  0  0  0  0  0
   87.8678   46.0387  264.0101 C   0  0  0  0  0  0  0  0  0  0  0  0
   88.3733   46.7249  265.1240 C   0  0  0  0  0  0  0  0  0  0  0  0
   87.3145   46.9352  266.5561 S   0  0  0  0  0  0  0  0  0  0  0  0
   87.5376   48.2780  267.1026 O   0  0  0  0  0  0  0  0  0  0  0  0
   85.9614   46.5209  266.1752 O   0  0  0  0  0  0  0  0  0  0  0  0
   88.0033   45.6830  267.7810 C   0  0  0  0  0  0  0  0  0  0  0  0
   94.2676   51.9515  268.0760 C   0  0  0  0  0  0  0  0  0  0  0  0
   94.4607   53.0907  268.8507 C   0  0  0  0  0  0  0  0  0  0  0  0
   92.4286   51.2390  269.4665 C   0  0  0  0  0  0  0  0  0  0  0  0
   92.6104   52.3297  270.2980 C   0  0  0  0  0  0  0  0  0  0  0  0
   93.6343   53.2671  269.9747 C   0  0  3  0  0  0  0  0  0  0  0  0
   93.6567   54.5790  271.1456 S   0  0  0  0  0  0  0  0  0  0  0  0
   92.4470   53.7602  272.0760 C   0  0  0  0  0  0  0  0  0  0  0  0
   91.9259   52.6515  271.4883 C   0  0  0  0  0  0  0  0  0  0  0  0
   92.0631   54.2673  273.2652 N   0  0  0  0  0  0  0  0  0  0  0  0
   92.3938   46.3537  265.8434 H   0  0  0  0  0  0  0  0  0  0  0  0
   91.5369   50.2134  266.4406 H   0  0  0  0  0  0  0  0  0  0  0  0
   91.1411   49.4591  268.0220 H   0  0  0  0  0  0  0  0  0  0  0  0
   97.3310   48.3231  268.2594 H   0  0  0  0  0  0  0  0  0  0  0  0
   96.8796   46.1934  267.1429 H   0  0  0  0  0  0  0  0  0  0  0  0
   91.4799   47.2891  263.8947 H   0  0  0  0  0  0  0  0  0  0  0  0
   88.2719   45.3759  262.0320 H   0  0  0  0  0  0  0  0  0  0  0  0
   86.8643   45.6397  264.0199 H   0  0  0  0  0  0  0  0  0  0  0  0
   87.4214   45.7233  268.7136 H   0  0  0  0  0  0  0  0  0  0  0  0
   87.9356   44.6732  267.3500 H   0  0  0  0  0  0  0  0  0  0  0  0
   89.0558   45.9204  267.9951 H   0  0  0  0  0  0  0  0  0  0  0  0
   94.9066   51.7763  267.2231 H   0  0  0  0  0  0  0  0  0  0  0  0
   95.2201   53.8156  268.5973 H   0  0  0  0  0  0  0  0  0  0  0  0
   91.6272   50.5432  269.6669 H   0  0  0  0  0  0  0  0  0  0  0  0
   94.3489   52.7023  270.5914 H   0  0  0  0  0  0  0  0  0  0  0  0
   91.0932   52.0881  271.8827 H   0  0  0  0  0  0  0  0  0  0  0  0
   92.5514   55.1111  273.4879 H   0  0  0  0  0  0  0  0  0  0  0  0
  1  2  1  0  0  0  0
  1  5  2  0  0  0  0
  2  3  1  0  0  0  0
  2 12  2  3  0  0  0
  3  4  1  0  0  0  0
  4  6  2  0  0  0  0
  4 11  1  0  0  0  0
  5  6  1  0  0  0  0
  5 10  1  0  0  0  0
  6  7  1  0  0  0  0
  7  8  2  0  0  0  0
  8  9  1  0  0  0  0
  9 10  2  0  0  0  0
 11 23  1  0  0  0  0
 11 25  2  0  0  0  0
 12 13  1  0  0  0  0
 13 14  2  0  0  0  0
 13 18  1  0  0  0  0
 14 15  1  0  0  0  0
 15 16  2  0  0  0  0
 16 17  1  0  0  0  0
 17 18  2  0  0  0  0
 18 19  1  0  0  0  0
 19 20  2  0  0  0  0
 19 21  2  0  0  0  0
 19 22  1  0  0  0  0
 23 24  2  0  0  0  0
 24 27  1  0  0  0  0
 25 26  1  0  0  0  0
 26 27  1  0  0  0  0
 26 30  2  0  0  0  0
 27 28  1  0  0  0  0
 28 29  1  0  0  0  0
 29 30  1  0  0  0  0
 29 31  2  0  0  0  0
  1 32  1  0  0  0  0
  3 33  1  0  0  0  0
  3 34  1  0  0  0  0
  8 35  1  0  0  0  0
  9 36  1  0  0  0  0
 14 37  1  0  0  0  0
 16 38  1  0  0  0  0
 17 39  1  0  0  0  0
 22 40  1  0  0  0  0
 22 41  1  0  0  0  0
 22 42  1  0  0  0  0
 23 43  1  0  0  0  0
 24 44  1  0  0  0  0
 25 45  1  0  0  0  0
 27 46  1  0  0  0  0
 30 47  1  0  0  0  0
 31 48  1  0  0  0  0
M  END
> <ID>
68

> <IC50[uM]>
0.068

$$$$
68
  -OEChem-05192314313D
 Structure written by MMmdl.
 48 52  0     0  0  0  0  0  0999 V2000
   92.5906   47.2900  266.3444 C   0  0  0  0  0  0  0  0  0  0  0  0
   91.5700   48.2152  266.5159 C   0  0  0  0  0  0  0  0  0  0  0  0
   91.8167   49.4248  267.1546 C   0  0  0  0  0  0  0  0  0  0  0  0
   93.0889   49.7623  267.6340 C   0  0  0  0  0  0  0  0  0  0  0  0
   93.8920   47.5770  266.8285 C   0  0  0  0  0  0  0  0  0  0  0  0
   94.1480   48.8244  267.4865 C   0  0  0  0  0  0  0  0  0  0  0  0
   95.3850   49.0832  268.0126 N   0  0  0  0  0  0  0  0  0  0  0  0
   96.3430   48.1354  267.8658 C   0  0  0  0  0  0  0  0  0  0  0  0
   96.0897   46.9257  267.2216 C   0  0  0  0  0  0  0  0  0  0  0  0
   94.8705   46.6478  266.6904 N   0  0  0  0  0  0  0  0  0  0  0  0
   93.2613   51.0285  268.3807 C   0  0  0  0  0  0  0  0  0  0  0  0
   90.2520   47.9338  266.1399 N   0  0  0  0  0  0  0  0  0  0  0  0
   89.7015   47.1928  265.0832 C   0  0  0  0  0  0  0  0  0  0  0  0
   90.4532   46.9549  263.9208 C   0  0  0  0  0  0  0  0  0  0  0  0
   89.9543   46.3298  262.8373 N   0  0  0  0  0  0  0  0  0  0  0  0
   88.6785   45.8812  262.8956 C   0  0  0  0  0  0  0  0  0  0  0  0
   87.8678   46.0387  264.0101 C   0  0  0  0  0  0  0  0  0  0  0  0
   88.3733   46.7249  265.1240 C   0  0  0  0  0  0  0  0  0  0  0  0
   87.3145   46.9352  266.5561 S   0  0  0  0  0  0  0  0  0  0  0  0
   87.5376   48.2780  267.1026 O   0  0  0  0  0  0  0  0  0  0  0  0
   85.9614   46.5209  266.1752 O   0  0  0  0  0  0  0  0  0  0  0  0
   88.0033   45.6830  267.7810 C   0  0  0  0  0  0  0  0  0  0  0  0
   94.2676   51.9515  268.0760 C   0  0  0  0  0  0  0  0  0  0  0  0
   94.4607   53.0907  268.8507 C   0  0  0  0  0  0  0  0  0  0  0  0
   92.4286   51.2390  269.4665 C   0  0  0  0  0  0  0  0  0  0  0  0
   92.6104   52.3297  270.2980 C   0  0  0  0  0  0  0  0  0  0  0  0
   93.6343   53.2671  269.9747 C   0  0  0  0  0  0  0  0  0  0  0  0
   93.6567   54.5790  271.1456 S   0  0  0  0  0  0  0  0  0  0  0  0
   92.4470   53.7602  272.0760 C   0  0  0  0  0  0  0  0  0  0  0  0
   91.9259   52.6515  271.4883 C   0  0  0  0  0  0  0  0  0  0  0  0
   92.0631   54.2673  273.2652 N   0  0  0  0  0  0  0  0  0  0  0  0
   92.3938   46.3537  265.8434 H   0  0  0  0  0  0  0  0  0  0  0  0
   91.5369   50.2134  266.4406 H   0  0  0  0  0  0  0  0  0  0  0  0
   91.1411   49.4591  268.0220 H   0  0  0  0  0  0  0  0  0  0  0  0
   97.3310   48.3231  268.2594 H   0  0  0  0  0  0  0  0  0  0  0  0
   96.8796   46.1934  267.1429 H   0  0  0  0  0  0  0  0  0  0  0  0
   91.4799   47.2891  263.8947 H   0  0  0  0  0  0  0  0  0  0  0  0
   88.2719   45.3759  262.0320 H   0  0  0  0  0  0  0  0  0  0  0  0
   86.8643   45.6397  264.0199 H   0  0  0  0  0  0  0  0  0  0  0  0
   87.4214   45.7233  268.7136 H   0  0  0  0  0  0  0  0  0  0  0  0
   87.9356   44.6732  267.3500 H   0  0  0  0  0  0  0  0  0  0  0  0
   89.0558   45.9204  267.9951 H   0  0  0  0  0  0  0  0  0  0  0  0
   95.2167   51.3959  268.0971 H   0  0  0  0  0  0  0  0  0  0  0  0
   94.0700   52.3010  267.0519 H   0  0  0  0  0  0  0  0  0  0  0  0
   95.2201   53.8156  268.5973 H   0  0  0  0  0  0  0  0  0  0  0  0
   91.6272   50.5432  269.6669 H   0  0  0  0  0  0  0  0  0  0  0  0
   91.0932   52.0881  271.8827 H   0  0  0  0  0  0  0  0  0  0  0  0
   92.5514   55.1111  273.4879 H   0  0  0  0  0  0  0  0  0  0  0  0
  1  2  1  0  0  0  0
  1  5  2  0  0  0  0
  2  3  1  0  0  0  0
  2 12  2  3  0  0  0
  3  4  1  0  0  0  0
  4  6  2  0  0  0  0
  4 11  1  0  0  0  0
  5  6  1  0  0  0  0
  5 10  1  0  0  0  0
  6  7  1  0  0  0  0
  7  8  2  0  0  0  0
  8  9  1  0  0  0  0
  9 10  2  0  0  0  0
 11 23  1  0  0  0  0
 11 25  2  0  0  0  0
 12 13  1  0  0  0  0
 13 14  2  0  0  0  0
 13 18  1  0  0  0  0
 14 15  1  0  0  0  0
 15 16  2  0  0  0  0
 16 17  1  0  0  0  0
 17 18  2  0  0  0  0
 18 19  1  0  0  0  0
 19 20  2  0  0  0  0
 19 21  2  0  0  0  0
 19 22  1  0  0  0  0
 23 24  1  0  0  0  0
 24 27  2  0  0  0  0
 25 26  1  0  0  0  0
 26 27  1  0  0  0  0
 26 30  2  0  0  0  0
 27 28  1  0  0  0  0
 28 29  1  0  0  0  0
 29 30  1  0  0  0  0
 29 31  2  0  0  0  0
  1 32  1  0  0  0  0
  3 33  1  0  0  0  0
  3 34  1  0  0  0  0
  8 35  1  0  0  0  0
  9 36  1  0  0  0  0
 14 37  1  0  0  0  0
 16 38  1  0  0  0  0
 17 39  1  0  0  0  0
 22 40  1  0  0  0  0
 22 41  1  0  0  0  0
 22 42  1  0  0  0  0
 23 43  1  0  0  0  0
 23 44  1  0  0  0  0
 24 45  1  0  0  0  0
 25 46  1  0  0  0  0
 30 47  1  0  0  0  0
 31 48  1  0  0  0  0
M  END
> <ID>
68

> <IC50[uM]>
0.068

$$$$
68
  -OEChem-05192314313D
 Structure written by MMmdl.
 48 52  0     0  0  0  0  0  0999 V2000
   92.5906   47.2900  266.3444 C   0  0  0  0  0  0  0  0  0  0  0  0
   91.5700   48.2152  266.5159 C   0  0  0  0  0  0  0  0  0  0  0  0
   91.8167   49.4248  267.1546 C   0  0  0  0  0  0  0  0  0  0  0  0
   93.0889   49.7623  267.6340 C   0  0  0  0  0  0  0  0  0  0  0  0
   93.8920   47.5770  266.8285 C   0  0  0  0  0  0  0  0  0  0  0  0
   94.1480   48.8244  267.4865 C   0  0  0  0  0  0  0  0  0  0  0  0
   95.3850   49.0832  268.0126 N   0  0  0  0  0  0  0  0  0  0  0  0
   96.3430   48.1354  267.8658 C   0  0  0  0  0  0  0  0  0  0  0  0
   96.0897   46.9257  267.2216 C   0  0  0  0  0  0  0  0  0  0  0  0
   94.8705   46.6478  266.6904 N   0  0  0  0  0  0  0  0  0  0  0  0
   93.2613   51.0285  268.3807 C   0  0  0  0  0  0  0  0  0  0  0  0
   90.2520   47.9338  266.1399 N   0  0  0  0  0  0  0  0  0  0  0  0
   89.7015   47.1928  265.0832 C   0  0  0  0  0  0  0  0  0  0  0  0
   90.4532   46.9549  263.9208 C   0  0  0  0  0  0  0  0  0  0  0  0
   89.9543   46.3298  262.8373 N   0  0  0  0  0  0  0  0  0  0  0  0
   88.6785   45.8812  262.8956 C   0  0  0  0  0  0  0  0  0  0  0  0
   87.8678   46.0387  264.0101 C   0  0  0  0  0  0  0  0  0  0  0  0
   88.3733   46.7249  265.1240 C   0  0  0  0  0  0  0  0  0  0  0  0
   87.3145   46.9352  266.5561 S   0  0  0  0  0  0  0  0  0  0  0  0
   87.5376   48.2780  267.1026 O   0  0  0  0  0  0  0  0  0  0  0  0
   85.9614   46.5209  266.1752 O   0  0  0  0  0  0  0  0  0  0  0  0
   88.0033   45.6830  267.7810 C   0  0  0  0  0  0  0  0  0  0  0  0
   94.2676   51.9515  268.0760 C   0  0  0  0  0  0  0  0  0  0  0  0
   94.4607   53.0907  268.8507 C   0  0  0  0  0  0  0  0  0  0  0  0
   92.4286   51.2390  269.4665 C   0  0  0  0  0  0  0  0  0  0  0  0
   92.6104   52.3297  270.2980 C   0  0  0  0  0  0  0  0  0  0  0  0
   93.6343   53.2671  269.9747 C   0  0  0  0  0  0  0  0  0  0  0  0
   93.6567   54.5790  271.1456 S   0  0  0  0  0  0  0  0  0  0  0  0
   92.4470   53.7602  272.0760 C   0  0  0  0  0  0  0  0  0  0  0  0
   91.9259   52.6515  271.4883 C   0  0  0  0  0  0  0  0  0  0  0  0
   92.0631   54.2673  273.2652 N   0  0  0  0  0  0  0  0  0  0  0  0
   92.3938   46.3537  265.8434 H   0  0  0  0  0  0  0  0  0  0  0  0
   91.5369   50.2134  266.4406 H   0  0  0  0  0  0  0  0  0  0  0  0
   91.1411   49.4591  268.0220 H   0  0  0  0  0  0  0  0  0  0  0  0
   97.3310   48.3231  268.2594 H   0  0  0  0  0  0  0  0  0  0  0  0
   96.8796   46.1934  267.1429 H   0  0  0  0  0  0  0  0  0  0  0  0
   91.4799   47.2891  263.8947 H   0  0  0  0  0  0  0  0  0  0  0  0
   88.2719   45.3759  262.0320 H   0  0  0  0  0  0  0  0  0  0  0  0
   86.8643   45.6397  264.0199 H   0  0  0  0  0  0  0  0  0  0  0  0
   87.4214   45.7233  268.7136 H   0  0  0  0  0  0  0  0  0  0  0  0
   87.9356   44.6732  267.3500 H   0  0  0  0  0  0  0  0  0  0  0  0
   89.0558   45.9204  267.9951 H   0  0  0  0  0  0  0  0  0  0  0  0
   94.9066   51.7763  267.2231 H   0  0  0  0  0  0  0  0  0  0  0  0
   95.2201   53.8156  268.5973 H   0  0  0  0  0  0  0  0  0  0  0  0
   91.4064   51.3157  269.0676 H   0  0  0  0  0  0  0  0  0  0  0  0
   92.5084   50.3441  270.1011 H   0  0  0  0  0  0  0  0  0  0  0  0
   91.0932   52.0881  271.8827 H   0  0  0  0  0  0  0  0  0  0  0  0
   92.5514   55.1111  273.4879 H   0  0  0  0  0  0  0  0  0  0  0  0
  1  2  1  0  0  0  0
  1  5  2  0  0  0  0
  2  3  1  0  0  0  0
  2 12  2  3  0  0  0
  3  4  1  0  0  0  0
  4  6  2  0  0  0  0
  4 11  1  0  0  0  0
  5  6  1  0  0  0  0
  5 10  1  0  0  0  0
  6  7  1  0  0  0  0
  7  8  2  0  0  0  0
  8  9  1  0  0  0  0
  9 10  2  0  0  0  0
 11 23  2  0  0  0  0
 11 25  1  0  0  0  0
 12 13  1  0  0  0  0
 13 14  2  0  0  0  0
 13 18  1  0  0  0  0
 14 15  1  0  0  0  0
 15 16  2  0  0  0  0
 16 17  1  0  0  0  0
 17 18  2  0  0  0  0
 18 19  1  0  0  0  0
 19 20  2  0  0  0  0
 19 21  2  0  0  0  0
 19 22  1  0  0  0  0
 23 24  1  0  0  0  0
 24 27  2  0  0  0  0
 25 26  1  0  0  0  0
 26 27  1  0  0  0  0
 26 30  2  0  0  0  0
 27 28  1  0  0  0  0
 28 29  1  0  0  0  0
 29 30  1  0  0  0  0
 29 31  2  0  0  0  0
  1 32  1  0  0  0  0
  3 33  1  0  0  0  0
  3 34  1  0  0  0  0
  8 35  1  0  0  0  0
  9 36  1  0  0  0  0
 14 37  1  0  0  0  0
 16 38  1  0  0  0  0
 17 39  1  0  0  0  0
 22 40  1  0  0  0  0
 22 41  1  0  0  0  0
 22 42  1  0  0  0  0
 23 43  1  0  0  0  0
 24 44  1  0  0  0  0
 25 45  1  0  0  0  0
 25 46  1  0  0  0  0
 30 47  1  0  0  0  0
 31 48  1  0  0  0  0
M  END
> <ID>
68

> <IC50[uM]>
0.068

$$$$
68
  -OEChem-05192314313D
 Structure written by MMmdl.
 48 52  0     1  0  0  0  0  0999 V2000
   92.5906   47.2900  266.3444 C   0  0  0  0  0  0  0  0  0  0  0  0
   91.5700   48.2152  266.5159 C   0  0  0  0  0  0  0  0  0  0  0  0
   91.8167   49.4248  267.1546 C   0  0  0  0  0  0  0  0  0  0  0  0
   93.0889   49.7623  267.6340 C   0  0  0  0  0  0  0  0  0  0  0  0
   93.8920   47.5770  266.8285 C   0  0  0  0  0  0  0  0  0  0  0  0
   94.1480   48.8244  267.4865 C   0  0  0  0  0  0  0  0  0  0  0  0
   95.3850   49.0832  268.0126 N   0  0  0  0  0  0  0  0  0  0  0  0
   96.3430   48.1354  267.8658 C   0  0  0  0  0  0  0  0  0  0  0  0
   96.0897   46.9257  267.2216 C   0  0  0  0  0  0  0  0  0  0  0  0
   94.8705   46.6478  266.6904 N   0  0  0  0  0  0  0  0  0  0  0  0
   93.2613   51.0285  268.3807 C   0  0  0  0  0  0  0  0  0  0  0  0
   90.2520   47.9338  266.1399 N   0  0  0  0  0  0  0  0  0  0  0  0
   89.7015   47.1928  265.0832 C   0  0  0  0  0  0  0  0  0  0  0  0
   90.4532   46.9549  263.9208 C   0  0  0  0  0  0  0  0  0  0  0  0
   89.9543   46.3298  262.8373 N   0  0  0  0  0  0  0  0  0  0  0  0
   88.6785   45.8812  262.8956 C   0  0  0  0  0  0  0  0  0  0  0  0
   87.8678   46.0387  264.0101 C   0  0  0  0  0  0  0  0  0  0  0  0
   88.3733   46.7249  265.1240 C   0  0  3  0  0  0  0  0  0  0  0  0
   87.3145   46.9352  266.5561 S   0  0  0  0  0  0  0  0  0  0  0  0
   87.5376   48.2780  267.1026 O   0  0  0  0  0  0  0  0  0  0  0  0
   85.9614   46.5209  266.1752 O   0  0  0  0  0  0  0  0  0  0  0  0
   88.0033   45.6830  267.7810 C   0  0  0  0  0  0  0  0  0  0  0  0
   94.2676   51.9515  268.0760 C   0  0  0  0  0  0  0  0  0  0  0  0
   94.4607   53.0907  268.8507 C   0  0  0  0  0  0  0  0  0  0  0  0
   92.4286   51.2390  269.4665 C   0  0  0  0  0  0  0  0  0  0  0  0
   92.6104   52.3297  270.2980 C   0  0  0  0  0  0  0  0  0  0  0  0
   93.6343   53.2671  269.9747 C   0  0  3  0  0  0  0  0  0  0  0  0
   93.6567   54.5790  271.1456 S   0  0  0  0  0  0  0  0  0  0  0  0
   92.4470   53.7602  272.0760 C   0  0  0  0  0  0  0  0  0  0  0  0
   91.9259   52.6515  271.4883 C   0  0  0  0  0  0  0  0  0  0  0  0
   92.0631   54.2673  273.2652 N   0  0  0  0  0  0  0  0  0  0  0  0
   92.3938   46.3537  265.8434 H   0  0  0  0  0  0  0  0  0  0  0  0
   91.0044   50.1244  267.2850 H   0  0  0  0  0  0  0  0  0  0  0  0
   97.3310   48.3231  268.2594 H   0  0  0  0  0  0  0  0  0  0  0  0
   96.8796   46.1934  267.1429 H   0  0  0  0  0  0  0  0  0  0  0  0
   91.4799   47.2891  263.8947 H   0  0  0  0  0  0  0  0  0  0  0  0
   88.2719   45.3759  262.0320 H   0  0  0  0  0  0  0  0  0  0  0  0
   86.8643   45.6397  264.0199 H   0  0  0  0  0  0  0  0  0  0  0  0
   88.0150   47.6790  264.7101 H   0  0  0  0  0  0  0  0  0  0  0  0
   87.4214   45.7233  268.7136 H   0  0  0  0  0  0  0  0  0  0  0  0
   87.9356   44.6732  267.3500 H   0  0  0  0  0  0  0  0  0  0  0  0
   89.0558   45.9204  267.9951 H   0  0  0  0  0  0  0  0  0  0  0  0
   94.9066   51.7763  267.2231 H   0  0  0  0  0  0  0  0  0  0  0  0
   95.2201   53.8156  268.5973 H   0  0  0  0  0  0  0  0  0  0  0  0
   91.6272   50.5432  269.6669 H   0  0  0  0  0  0  0  0  0  0  0  0
   94.3489   52.7023  270.5914 H   0  0  0  0  0  0  0  0  0  0  0  0
   91.0932   52.0881  271.8827 H   0  0  0  0  0  0  0  0  0  0  0  0
   92.5514   55.1111  273.4879 H   0  0  0  0  0  0  0  0  0  0  0  0
  1  2  2  0  0  0  0
  1  5  1  0  0  0  0
  2  3  1  0  0  0  0
  2 12  1  0  0  0  0
  3  4  2  0  0  0  0
  4  6  1  0  0  0  0
  4 11  1  0  0  0  0
  5  6  2  0  0  0  0
  5 10  1  0  0  0  0
  6  7  1  0  0  0  0
  7  8  2  0  0  0  0
  8  9  1  0  0  0  0
  9 10  2  0  0  0  0
 11 23  1  0  0  0  0
 11 25  2  0  0  0  0
 12 13  2  0  0  0  0
 13 14  1  0  0  0  0
 13 18  1  0  0  0  0
 14 15  2  0  0  0  0
 15 16  1  0  0  0  0
 16 17  2  0  0  0  0
 17 18  1  0  0  0  0
 18 19  1  0  0  0  0
 19 20  2  0  0  0  0
 19 21  2  0  0  0  0
 19 22  1  0  0  0  0
 23 24  2  0  0  0  0
 24 27  1  0  0  0  0
 25 26  1  0  0  0  0
 26 27  1  0  0  0  0
 26 30  2  0  0  0  0
 27 28  1  0  0  0  0
 28 29  1  0  0  0  0
 29 30  1  0  0  0  0
 29 31  2  0  0  0  0
  1 32  1  0  0  0  0
  3 33  1  0  0  0  0
  8 34  1  0  0  0  0
  9 35  1  0  0  0  0
 14 36  1  0  0  0  0
 16 37  1  0  0  0  0
 17 38  1  0  0  0  0
 18 39  1  0  0  0  0
 22 40  1  0  0  0  0
 22 41  1  0  0  0  0
 22 42  1  0  0  0  0
 23 43  1  0  0  0  0
 24 44  1  0  0  0  0
 25 45  1  0  0  0  0
 27 46  1  0  0  0  0
 30 47  1  0  0  0  0
 31 48  1  0  0  0  0
M  END
> <ID>
68

> <IC50[uM]>
0.068

$$$$
68
  -OEChem-05192314313D
 Structure written by MMmdl.
 48 52  0     1  0  0  0  0  0999 V2000
   92.5906   47.2900  266.3444 C   0  0  0  0  0  0  0  0  0  0  0  0
   91.5700   48.2152  266.5159 C   0  0  0  0  0  0  0  0  0  0  0  0
   91.8167   49.4248  267.1546 C   0  0  0  0  0  0  0  0  0  0  0  0
   93.0889   49.7623  267.6340 C   0  0  0  0  0  0  0  0  0  0  0  0
   93.8920   47.5770  266.8285 C   0  0  0  0  0  0  0  0  0  0  0  0
   94.1480   48.8244  267.4865 C   0  0  0  0  0  0  0  0  0  0  0  0
   95.3850   49.0832  268.0126 N   0  0  0  0  0  0  0  0  0  0  0  0
   96.3430   48.1354  267.8658 C   0  0  0  0  0  0  0  0  0  0  0  0
   96.0897   46.9257  267.2216 C   0  0  0  0  0  0  0  0  0  0  0  0
   94.8705   46.6478  266.6904 N   0  0  0  0  0  0  0  0  0  0  0  0
   93.2613   51.0285  268.3807 C   0  0  0  0  0  0  0  0  0  0  0  0
   90.2520   47.9338  266.1399 N   0  0  0  0  0  0  0  0  0  0  0  0
   89.7015   47.1928  265.0832 C   0  0  0  0  0  0  0  0  0  0  0  0
   90.4532   46.9549  263.9208 C   0  0  0  0  0  0  0  0  0  0  0  0
   89.9543   46.3298  262.8373 N   0  0  0  0  0  0  0  0  0  0  0  0
   88.6785   45.8812  262.8956 C   0  0  0  0  0  0  0  0  0  0  0  0
   87.8678   46.0387  264.0101 C   0  0  0  0  0  0  0  0  0  0  0  0
   88.3733   46.7249  265.1240 C   0  0  3  0  0  0  0  0  0  0  0  0
   87.3145   46.9352  266.5561 S   0  0  0  0  0  0  0  0  0  0  0  0
   87.5376   48.2780  267.1026 O   0  0  0  0  0  0  0  0  0  0  0  0
   85.9614   46.5209  266.1752 O   0  0  0  0  0  0  0  0  0  0  0  0
   88.0033   45.6830  267.7810 C   0  0  0  0  0  0  0  0  0  0  0  0
   94.2676   51.9515  268.0760 C   0  0  0  0  0  0  0  0  0  0  0  0
   94.4607   53.0907  268.8507 C   0  0  0  0  0  0  0  0  0  0  0  0
   92.4286   51.2390  269.4665 C   0  0  0  0  0  0  0  0  0  0  0  0
   92.6104   52.3297  270.2980 C   0  0  0  0  0  0  0  0  0  0  0  0
   93.6343   53.2671  269.9747 C   0  0  0  0  0  0  0  0  0  0  0  0
   93.6567   54.5790  271.1456 S   0  0  0  0  0  0  0  0  0  0  0  0
   92.4470   53.7602  272.0760 C   0  0  0  0  0  0  0  0  0  0  0  0
   91.9259   52.6515  271.4883 C   0  0  0  0  0  0  0  0  0  0  0  0
   92.0631   54.2673  273.2652 N   0  0  0  0  0  0  0  0  0  0  0  0
   92.3938   46.3537  265.8434 H   0  0  0  0  0  0  0  0  0  0  0  0
   91.0044   50.1244  267.2850 H   0  0  0  0  0  0  0  0  0  0  0  0
   97.3310   48.3231  268.2594 H   0  0  0  0  0  0  0  0  0  0  0  0
   96.8796   46.1934  267.1429 H   0  0  0  0  0  0  0  0  0  0  0  0
   91.4799   47.2891  263.8947 H   0  0  0  0  0  0  0  0  0  0  0  0
   88.2719   45.3759  262.0320 H   0  0  0  0  0  0  0  0  0  0  0  0
   86.8643   45.6397  264.0199 H   0  0  0  0  0  0  0  0  0  0  0  0
   88.0150   47.6790  264.7101 H   0  0  0  0  0  0  0  0  0  0  0  0
   87.4214   45.7233  268.7136 H   0  0  0  0  0  0  0  0  0  0  0  0
   87.9356   44.6732  267.3500 H   0  0  0  0  0  0  0  0  0  0  0  0
   89.0558   45.9204  267.9951 H   0  0  0  0  0  0  0  0  0  0  0  0
   95.2167   51.3959  268.0971 H   0  0  0  0  0  0  0  0  0  0  0  0
   94.0700   52.3010  267.0519 H   0  0  0  0  0  0  0  0  0  0  0  0
   95.2201   53.8156  268.5973 H   0  0  0  0  0  0  0  0  0  0  0  0
   91.6272   50.5432  269.6669 H   0  0  0  0  0  0  0  0  0  0  0  0
   91.0932   52.0881  271.8827 H   0  0  0  0  0  0  0  0  0  0  0  0
   92.5514   55.1111  273.4879 H   0  0  0  0  0  0  0  0  0  0  0  0
  1  2  2  0  0  0  0
  1  5  1  0  0  0  0
  2  3  1  0  0  0  0
  2 12  1  0  0  0  0
  3  4  2  0  0  0  0
  4  6  1  0  0  0  0
  4 11  1  0  0  0  0
  5  6  2  0  0  0  0
  5 10  1  0  0  0  0
  6  7  1  0  0  0  0
  7  8  2  0  0  0  0
  8  9  1  0  0  0  0
  9 10  2  0  0  0  0
 11 23  1  0  0  0  0
 11 25  2  0  0  0  0
 12 13  2  0  0  0  0
 13 14  1  0  0  0  0
 13 18  1  0  0  0  0
 14 15  2  0  0  0  0
 15 16  1  0  0  0  0
 16 17  2  0  0  0  0
 17 18  1  0  0  0  0
 18 19  1  0  0  0  0
 19 20  2  0  0  0  0
 19 21  2  0  0  0  0
 19 22  1  0  0  0  0
 23 24  1  0  0  0  0
 24 27  2  0  0  0  0
 25 26  1  0  0  0  0
 26 27  1  0  0  0  0
 26 30  2  0  0  0  0
 27 28  1  0  0  0  0
 28 29  1  0  0  0  0
 29 30  1  0  0  0  0
 29 31  2  0  0  0  0
  1 32  1  0  0  0  0
  3 33  1  0  0  0  0
  8 34  1  0  0  0  0
  9 35  1  0  0  0  0
 14 36  1  0  0  0  0
 16 37  1  0  0  0  0
 17 38  1  0  0  0  0
 18 39  1  0  0  0  0
 22 40  1  0  0  0  0
 22 41  1  0  0  0  0
 22 42  1  0  0  0  0
 23 43  1  0  0  0  0
 23 44  1  0  0  0  0
 24 45  1  0  0  0  0
 25 46  1  0  0  0  0
 30 47  1  0  0  0  0
 31 48  1  0  0  0  0
M  END
> <ID>
68

> <IC50[uM]>
0.068

$$$$
68
  -OEChem-05192314313D
 Structure written by MMmdl.
 48 52  0     1  0  0  0  0  0999 V2000
   92.5906   47.2900  266.3444 C   0  0  0  0  0  0  0  0  0  0  0  0
   91.5700   48.2152  266.5159 C   0  0  0  0  0  0  0  0  0  0  0  0
   91.8167   49.4248  267.1546 C   0  0  0  0  0  0  0  0  0  0  0  0
   93.0889   49.7623  267.6340 C   0  0  0  0  0  0  0  0  0  0  0  0
   93.8920   47.5770  266.8285 C   0  0  0  0  0  0  0  0  0  0  0  0
   94.1480   48.8244  267.4865 C   0  0  0  0  0  0  0  0  0  0  0  0
   95.3850   49.0832  268.0126 N   0  0  0  0  0  0  0  0  0  0  0  0
   96.3430   48.1354  267.8658 C   0  0  0  0  0  0  0  0  0  0  0  0
   96.0897   46.9257  267.2216 C   0  0  0  0  0  0  0  0  0  0  0  0
   94.8705   46.6478  266.6904 N   0  0  0  0  0  0  0  0  0  0  0  0
   93.2613   51.0285  268.3807 C   0  0  0  0  0  0  0  0  0  0  0  0
   90.2520   47.9338  266.1399 N   0  0  0  0  0  0  0  0  0  0  0  0
   89.7015   47.1928  265.0832 C   0  0  0  0  0  0  0  0  0  0  0  0
   90.4532   46.9549  263.9208 C   0  0  0  0  0  0  0  0  0  0  0  0
   89.9543   46.3298  262.8373 N   0  0  0  0  0  0  0  0  0  0  0  0
   88.6785   45.8812  262.8956 C   0  0  0  0  0  0  0  0  0  0  0  0
   87.8678   46.0387  264.0101 C   0  0  0  0  0  0  0  0  0  0  0  0
   88.3733   46.7249  265.1240 C   0  0  3  0  0  0  0  0  0  0  0  0
   87.3145   46.9352  266.5561 S   0  0  0  0  0  0  0  0  0  0  0  0
   87.5376   48.2780  267.1026 O   0  0  0  0  0  0  0  0  0  0  0  0
   85.9614   46.5209  266.1752 O   0  0  0  0  0  0  0  0  0  0  0  0
   88.0033   45.6830  267.7810 C   0  0  0  0  0  0  0  0  0  0  0  0
   94.2676   51.9515  268.0760 C   0  0  0  0  0  0  0  0  0  0  0  0
   94.4607   53.0907  268.8507 C   0  0  0  0  0  0  0  0  0  0  0  0
   92.4286   51.2390  269.4665 C   0  0  0  0  0  0  0  0  0  0  0  0
   92.6104   52.3297  270.2980 C   0  0  0  0  0  0  0  0  0  0  0  0
   93.6343   53.2671  269.9747 C   0  0  0  0  0  0  0  0  0  0  0  0
   93.6567   54.5790  271.1456 S   0  0  0  0  0  0  0  0  0  0  0  0
   92.4470   53.7602  272.0760 C   0  0  0  0  0  0  0  0  0  0  0  0
   91.9259   52.6515  271.4883 C   0  0  0  0  0  0  0  0  0  0  0  0
   92.0631   54.2673  273.2652 N   0  0  0  0  0  0  0  0  0  0  0  0
   92.3938   46.3537  265.8434 H   0  0  0  0  0  0  0  0  0  0  0  0
   91.0044   50.1244  267.2850 H   0  0  0  0  0  0  0  0  0  0  0  0
   97.3310   48.3231  268.2594 H   0  0  0  0  0  0  0  0  0  0  0  0
   96.8796   46.1934  267.1429 H   0  0  0  0  0  0  0  0  0  0  0  0
   91.4799   47.2891  263.8947 H   0  0  0  0  0  0  0  0  0  0  0  0
   88.2719   45.3759  262.0320 H   0  0  0  0  0  0  0  0  0  0  0  0
   86.8643   45.6397  264.0199 H   0  0  0  0  0  0  0  0  0  0  0  0
   88.0150   47.6790  264.7101 H   0  0  0  0  0  0  0  0  0  0  0  0
   87.4214   45.7233  268.7136 H   0  0  0  0  0  0  0  0  0  0  0  0
   87.9356   44.6732  267.3500 H   0  0  0  0  0  0  0  0  0  0  0  0
   89.0558   45.9204  267.9951 H   0  0  0  0  0  0  0  0  0  0  0  0
   94.9066   51.7763  267.2231 H   0  0  0  0  0  0  0  0  0  0  0  0
   95.2201   53.8156  268.5973 H   0  0  0  0  0  0  0  0  0  0  0  0
   91.4064   51.3157  269.0676 H   0  0  0  0  0  0  0  0  0  0  0  0
   92.5084   50.3441  270.1011 H   0  0  0  0  0  0  0  0  0  0  0  0
   91.0932   52.0881  271.8827 H   0  0  0  0  0  0  0  0  0  0  0  0
   92.5514   55.1111  273.4879 H   0  0  0  0  0  0  0  0  0  0  0  0
  1  2  2  0  0  0  0
  1  5  1  0  0  0  0
  2  3  1  0  0  0  0
  2 12  1  0  0  0  0
  3  4  2  0  0  0  0
  4  6  1  0  0  0  0
  4 11  1  0  0  0  0
  5  6  2  0  0  0  0
  5 10  1  0  0  0  0
  6  7  1  0  0  0  0
  7  8  2  0  0  0  0
  8  9  1  0  0  0  0
  9 10  2  0  0  0  0
 11 23  2  0  0  0  0
 11 25  1  0  0  0  0
 12 13  2  0  0  0  0
 13 14  1  0  0  0  0
 13 18  1  0  0  0  0
 14 15  2  0  0  0  0
 15 16  1  0  0  0  0
 16 17  2  0  0  0  0
 17 18  1  0  0  0  0
 18 19  1  0  0  0  0
 19 20  2  0  0  0  0
 19 21  2  0  0  0  0
 19 22  1  0  0  0  0
 23 24  1  0  0  0  0
 24 27  2  0  0  0  0
 25 26  1  0  0  0  0
 26 27  1  0  0  0  0
 26 30  2  0  0  0  0
 27 28  1  0  0  0  0
 28 29  1  0  0  0  0
 29 30  1  0  0  0  0
 29 31  2  0  0  0  0
  1 32  1  0  0  0  0
  3 33  1  0  0  0  0
  8 34  1  0  0  0  0
  9 35  1  0  0  0  0
 14 36  1  0  0  0  0
 16 37  1  0  0  0  0
 17 38  1  0  0  0  0
 18 39  1  0  0  0  0
 22 40  1  0  0  0  0
 22 41  1  0  0  0  0
 22 42  1  0  0  0  0
 23 43  1  0  0  0  0
 24 44  1  0  0  0  0
 25 45  1  0  0  0  0
 25 46  1  0  0  0  0
 30 47  1  0  0  0  0
 31 48  1  0  0  0  0
M  END
> <ID>
68

> <IC50[uM]>
0.068

$$$$
68
  -OEChem-05192314313D
 Structure written by MMmdl.
 48 52  0     1  0  0  0  0  0999 V2000
   92.5906   47.2900  266.3444 C   0  0  0  0  0  0  0  0  0  0  0  0
   91.5700   48.2152  266.5159 C   0  0  0  0  0  0  0  0  0  0  0  0
   91.8167   49.4248  267.1546 C   0  0  0  0  0  0  0  0  0  0  0  0
   93.0889   49.7623  267.6340 C   0  0  0  0  0  0  0  0  0  0  0  0
   93.8920   47.5770  266.8285 C   0  0  0  0  0  0  0  0  0  0  0  0
   94.1480   48.8244  267.4865 C   0  0  0  0  0  0  0  0  0  0  0  0
   95.3850   49.0832  268.0126 N   0  0  0  0  0  0  0  0  0  0  0  0
   96.3430   48.1354  267.8658 C   0  0  0  0  0  0  0  0  0  0  0  0
   96.0897   46.9257  267.2216 C   0  0  0  0  0  0  0  0  0  0  0  0
   94.8705   46.6478  266.6904 N   0  0  0  0  0  0  0  0  0  0  0  0
   93.2613   51.0285  268.3807 C   0  0  0  0  0  0  0  0  0  0  0  0
   90.2520   47.9338  266.1399 N   0  0  0  0  0  0  0  0  0  0  0  0
   89.7015   47.1928  265.0832 C   0  0  0  0  0  0  0  0  0  0  0  0
   90.4532   46.9549  263.9208 C   0  0  0  0  0  0  0  0  0  0  0  0
   89.9543   46.3298  262.8373 N   0  0  0  0  0  0  0  0  0  0  0  0
   88.6785   45.8812  262.8956 C   0  0  0  0  0  0  0  0  0  0  0  0
   87.8678   46.0387  264.0101 C   0  0  0  0  0  0  0  0  0  0  0  0
   88.3733   46.7249  265.1240 C   0  0  0  0  0  0  0  0  0  0  0  0
   87.3145   46.9352  266.5561 S   0  0  0  0  0  0  0  0  0  0  0  0
   87.5376   48.2780  267.1026 O   0  0  0  0  0  0  0  0  0  0  0  0
   85.9614   46.5209  266.1752 O   0  0  0  0  0  0  0  0  0  0  0  0
   88.0033   45.6830  267.7810 C   0  0  0  0  0  0  0  0  0  0  0  0
   94.2676   51.9515  268.0760 C   0  0  0  0  0  0  0  0  0  0  0  0
   94.4607   53.0907  268.8507 C   0  0  0  0  0  0  0  0  0  0  0  0
   92.4286   51.2390  269.4665 C   0  0  0  0  0  0  0  0  0  0  0  0
   92.6104   52.3297  270.2980 C   0  0  0  0  0  0  0  0  0  0  0  0
   93.6343   53.2671  269.9747 C   0  0  3  0  0  0  0  0  0  0  0  0
   93.6567   54.5790  271.1456 S   0  0  0  0  0  0  0  0  0  0  0  0
   92.4470   53.7602  272.0760 C   0  0  0  0  0  0  0  0  0  0  0  0
   91.9259   52.6515  271.4883 C   0  0  0  0  0  0  0  0  0  0  0  0
   92.0631   54.2673  273.2652 N   0  0  0  0  0  0  0  0  0  0  0  0
   92.3938   46.3537  265.8434 H   0  0  0  0  0  0  0  0  0  0  0  0
   91.0044   50.1244  267.2850 H   0  0  0  0  0  0  0  0  0  0  0  0
   97.3310   48.3231  268.2594 H   0  0  0  0  0  0  0  0  0  0  0  0
   96.8796   46.1934  267.1429 H   0  0  0  0  0  0  0  0  0  0  0  0
   91.4799   47.2891  263.8947 H   0  0  0  0  0  0  0  0  0  0  0  0
   88.1483   46.3700  262.0650 H   0  0  0  0  0  0  0  0  0  0  0  0
   88.7305   44.7981  262.7106 H   0  0  0  0  0  0  0  0  0  0  0  0
   86.8643   45.6397  264.0199 H   0  0  0  0  0  0  0  0  0  0  0  0
   87.4214   45.7233  268.7136 H   0  0  0  0  0  0  0  0  0  0  0  0
   87.9356   44.6732  267.3500 H   0  0  0  0  0  0  0  0  0  0  0  0
   89.0558   45.9204  267.9951 H   0  0  0  0  0  0  0  0  0  0  0  0
   94.9066   51.7763  267.2231 H   0  0  0  0  0  0  0  0  0  0  0  0
   95.2201   53.8156  268.5973 H   0  0  0  0  0  0  0  0  0  0  0  0
   91.6272   50.5432  269.6669 H   0  0  0  0  0  0  0  0  0  0  0  0
   94.3489   52.7023  270.5914 H   0  0  0  0  0  0  0  0  0  0  0  0
   91.0932   52.0881  271.8827 H   0  0  0  0  0  0  0  0  0  0  0  0
   92.5514   55.1111  273.4879 H   0  0  0  0  0  0  0  0  0  0  0  0
  1  2  2  0  0  0  0
  1  5  1  0  0  0  0
  2  3  1  0  0  0  0
  2 12  1  0  0  0  0
  3  4  2  0  0  0  0
  4  6  1  0  0  0  0
  4 11  1  0  0  0  0
  5  6  2  0  0  0  0
  5 10  1  0  0  0  0
  6  7  1  0  0  0  0
  7  8  2  0  0  0  0
  8  9  1  0  0  0  0
  9 10  2  0  0  0  0
 11 23  1  0  0  0  0
 11 25  2  0  0  0  0
 12 13  2  0  0  0  0
 13 14  1  0  0  0  0
 13 18  1  0  0  0  0
 14 15  2  0  0  0  0
 15 16  1  0  0  0  0
 16 17  1  0  0  0  0
 17 18  2  0  0  0  0
 18 19  1  0  0  0  0
 19 20  2  0  0  0  0
 19 21  2  0  0  0  0
 19 22  1  0  0  0  0
 23 24  2  0  0  0  0
 24 27  1  0  0  0  0
 25 26  1  0  0  0  0
 26 27  1  0  0  0  0
 26 30  2  0  0  0  0
 27 28  1  0  0  0  0
 28 29  1  0  0  0  0
 29 30  1  0  0  0  0
 29 31  2  0  0  0  0
  1 32  1  0  0  0  0
  3 33  1  0  0  0  0
  8 34  1  0  0  0  0
  9 35  1  0  0  0  0
 14 36  1  0  0  0  0
 16 37  1  0  0  0  0
 16 38  1  0  0  0  0
 17 39  1  0  0  0  0
 22 40  1  0  0  0  0
 22 41  1  0  0  0  0
 22 42  1  0  0  0  0
 23 43  1  0  0  0  0
 24 44  1  0  0  0  0
 25 45  1  0  0  0  0
 27 46  1  0  0  0  0
 30 47  1  0  0  0  0
 31 48  1  0  0  0  0
M  END
> <ID>
68

> <IC50[uM]>
0.068

$$$$
68
  -OEChem-05192314313D
 Structure written by MMmdl.
 48 52  0     0  0  0  0  0  0999 V2000
   92.5906   47.2900  266.3444 C   0  0  0  0  0  0  0  0  0  0  0  0
   91.5700   48.2152  266.5159 C   0  0  0  0  0  0  0  0  0  0  0  0
   91.8167   49.4248  267.1546 C   0  0  0  0  0  0  0  0  0  0  0  0
   93.0889   49.7623  267.6340 C   0  0  0  0  0  0  0  0  0  0  0  0
   93.8920   47.5770  266.8285 C   0  0  0  0  0  0  0  0  0  0  0  0
   94.1480   48.8244  267.4865 C   0  0  0  0  0  0  0  0  0  0  0  0
   95.3850   49.0832  268.0126 N   0  0  0  0  0  0  0  0  0  0  0  0
   96.3430   48.1354  267.8658 C   0  0  0  0  0  0  0  0  0  0  0  0
   96.0897   46.9257  267.2216 C   0  0  0  0  0  0  0  0  0  0  0  0
   94.8705   46.6478  266.6904 N   0  0  0  0  0  0  0  0  0  0  0  0
   93.2613   51.0285  268.3807 C   0  0  0  0  0  0  0  0  0  0  0  0
   90.2520   47.9338  266.1399 N   0  0  0  0  0  0  0  0  0  0  0  0
   89.7015   47.1928  265.0832 C   0  0  0  0  0  0  0  0  0  0  0  0
   90.4532   46.9549  263.9208 C   0  0  0  0  0  0  0  0  0  0  0  0
   89.9543   46.3298  262.8373 N   0  0  0  0  0  0  0  0  0  0  0  0
   88.6785   45.8812  262.8956 C   0  0  0  0  0  0  0  0  0  0  0  0
   87.8678   46.0387  264.0101 C   0  0  0  0  0  0  0  0  0  0  0  0
   88.3733   46.7249  265.1240 C   0  0  0  0  0  0  0  0  0  0  0  0
   87.3145   46.9352  266.5561 S   0  0  0  0  0  0  0  0  0  0  0  0
   87.5376   48.2780  267.1026 O   0  0  0  0  0  0  0  0  0  0  0  0
   85.9614   46.5209  266.1752 O   0  0  0  0  0  0  0  0  0  0  0  0
   88.0033   45.6830  267.7810 C   0  0  0  0  0  0  0  0  0  0  0  0
   94.2676   51.9515  268.0760 C   0  0  0  0  0  0  0  0  0  0  0  0
   94.4607   53.0907  268.8507 C   0  0  0  0  0  0  0  0  0  0  0  0
   92.4286   51.2390  269.4665 C   0  0  0  0  0  0  0  0  0  0  0  0
   92.6104   52.3297  270.2980 C   0  0  0  0  0  0  0  0  0  0  0  0
   93.6343   53.2671  269.9747 C   0  0  0  0  0  0  0  0  0  0  0  0
   93.6567   54.5790  271.1456 S   0  0  0  0  0  0  0  0  0  0  0  0
   92.4470   53.7602  272.0760 C   0  0  0  0  0  0  0  0  0  0  0  0
   91.9259   52.6515  271.4883 C   0  0  0  0  0  0  0  0  0  0  0  0
   92.0631   54.2673  273.2652 N   0  0  0  0  0  0  0  0  0  0  0  0
   92.3938   46.3537  265.8434 H   0  0  0  0  0  0  0  0  0  0  0  0
   91.0044   50.1244  267.2850 H   0  0  0  0  0  0  0  0  0  0  0  0
   97.3310   48.3231  268.2594 H   0  0  0  0  0  0  0  0  0  0  0  0
   96.8796   46.1934  267.1429 H   0  0  0  0  0  0  0  0  0  0  0  0
   91.4799   47.2891  263.8947 H   0  0  0  0  0  0  0  0  0  0  0  0
   88.1483   46.3700  262.0650 H   0  0  0  0  0  0  0  0  0  0  0  0
   88.7305   44.7981  262.7106 H   0  0  0  0  0  0  0  0  0  0  0  0
   86.8643   45.6397  264.0199 H   0  0  0  0  0  0  0  0  0  0  0  0
   87.4214   45.7233  268.7136 H   0  0  0  0  0  0  0  0  0  0  0  0
   87.9356   44.6732  267.3500 H   0  0  0  0  0  0  0  0  0  0  0  0
   89.0558   45.9204  267.9951 H   0  0  0  0  0  0  0  0  0  0  0  0
   95.2167   51.3959  268.0971 H   0  0  0  0  0  0  0  0  0  0  0  0
   94.0700   52.3010  267.0519 H   0  0  0  0  0  0  0  0  0  0  0  0
   95.2201   53.8156  268.5973 H   0  0  0  0  0  0  0  0  0  0  0  0
   91.6272   50.5432  269.6669 H   0  0  0  0  0  0  0  0  0  0  0  0
   91.0932   52.0881  271.8827 H   0  0  0  0  0  0  0  0  0  0  0  0
   92.5514   55.1111  273.4879 H   0  0  0  0  0  0  0  0  0  0  0  0
  1  2  2  0  0  0  0
  1  5  1  0  0  0  0
  2  3  1  0  0  0  0
  2 12  1  0  0  0  0
  3  4  2  0  0  0  0
  4  6  1  0  0  0  0
  4 11  1  0  0  0  0
  5  6  2  0  0  0  0
  5 10  1  0  0  0  0
  6  7  1  0  0  0  0
  7  8  2  0  0  0  0
  8  9  1  0  0  0  0
  9 10  2  0  0  0  0
 11 23  1  0  0  0  0
 11 25  2  0  0  0  0
 12 13  2  0  0  0  0
 13 14  1  0  0  0  0
 13 18  1  0  0  0  0
 14 15  2  0  0  0  0
 15 16  1  0  0  0  0
 16 17  1  0  0  0  0
 17 18  2  0  0  0  0
 18 19  1  0  0  0  0
 19 20  2  0  0  0  0
 19 21  2  0  0  0  0
 19 22  1  0  0  0  0
 23 24  1  0  0  0  0
 24 27  2  0  0  0  0
 25 26  1  0  0  0  0
 26 27  1  0  0  0  0
 26 30  2  0  0  0  0
 27 28  1  0  0  0  0
 28 29  1  0  0  0  0
 29 30  1  0  0  0  0
 29 31  2  0  0  0  0
  1 32  1  0  0  0  0
  3 33  1  0  0  0  0
  8 34  1  0  0  0  0
  9 35  1  0  0  0  0
 14 36  1  0  0  0  0
 16 37  1  0  0  0  0
 16 38  1  0  0  0  0
 17 39  1  0  0  0  0
 22 40  1  0  0  0  0
 22 41  1  0  0  0  0
 22 42  1  0  0  0  0
 23 43  1  0  0  0  0
 23 44  1  0  0  0  0
 24 45  1  0  0  0  0
 25 46  1  0  0  0  0
 30 47  1  0  0  0  0
 31 48  1  0  0  0  0
M  END
> <ID>
68

> <IC50[uM]>
0.068

$$$$
68
  -OEChem-05192314313D
 Structure written by MMmdl.
 48 52  0     0  0  0  0  0  0999 V2000
   92.5906   47.2900  266.3444 C   0  0  0  0  0  0  0  0  0  0  0  0
   91.5700   48.2152  266.5159 C   0  0  0  0  0  0  0  0  0  0  0  0
   91.8167   49.4248  267.1546 C   0  0  0  0  0  0  0  0  0  0  0  0
   93.0889   49.7623  267.6340 C   0  0  0  0  0  0  0  0  0  0  0  0
   93.8920   47.5770  266.8285 C   0  0  0  0  0  0  0  0  0  0  0  0
   94.1480   48.8244  267.4865 C   0  0  0  0  0  0  0  0  0  0  0  0
   95.3850   49.0832  268.0126 N   0  0  0  0  0  0  0  0  0  0  0  0
   96.3430   48.1354  267.8658 C   0  0  0  0  0  0  0  0  0  0  0  0
   96.0897   46.9257  267.2216 C   0  0  0  0  0  0  0  0  0  0  0  0
   94.8705   46.6478  266.6904 N   0  0  0  0  0  0  0  0  0  0  0  0
   93.2613   51.0285  268.3807 C   0  0  0  0  0  0  0  0  0  0  0  0
   90.2520   47.9338  266.1399 N   0  0  0  0  0  0  0  0  0  0  0  0
   89.7015   47.1928  265.0832 C   0  0  0  0  0  0  0  0  0  0  0  0
   90.4532   46.9549  263.9208 C   0  0  0  0  0  0  0  0  0  0  0  0
   89.9543   46.3298  262.8373 N   0  0  0  0  0  0  0  0  0  0  0  0
   88.6785   45.8812  262.8956 C   0  0  0  0  0  0  0  0  0  0  0  0
   87.8678   46.0387  264.0101 C   0  0  0  0  0  0  0  0  0  0  0  0
   88.3733   46.7249  265.1240 C   0  0  0  0  0  0  0  0  0  0  0  0
   87.3145   46.9352  266.5561 S   0  0  0  0  0  0  0  0  0  0  0  0
   87.5376   48.2780  267.1026 O   0  0  0  0  0  0  0  0  0  0  0  0
   85.9614   46.5209  266.1752 O   0  0  0  0  0  0  0  0  0  0  0  0
   88.0033   45.6830  267.7810 C   0  0  0  0  0  0  0  0  0  0  0  0
   94.2676   51.9515  268.0760 C   0  0  0  0  0  0  0  0  0  0  0  0
   94.4607   53.0907  268.8507 C   0  0  0  0  0  0  0  0  0  0  0  0
   92.4286   51.2390  269.4665 C   0  0  0  0  0  0  0  0  0  0  0  0
   92.6104   52.3297  270.2980 C   0  0  0  0  0  0  0  0  0  0  0  0
   93.6343   53.2671  269.9747 C   0  0  0  0  0  0  0  0  0  0  0  0
   93.6567   54.5790  271.1456 S   0  0  0  0  0  0  0  0  0  0  0  0
   92.4470   53.7602  272.0760 C   0  0  0  0  0  0  0  0  0  0  0  0
   91.9259   52.6515  271.4883 C   0  0  0  0  0  0  0  0  0  0  0  0
   92.0631   54.2673  273.2652 N   0  0  0  0  0  0  0  0  0  0  0  0
   92.3938   46.3537  265.8434 H   0  0  0  0  0  0  0  0  0  0  0  0
   91.0044   50.1244  267.2850 H   0  0  0  0  0  0  0  0  0  0  0  0
   97.3310   48.3231  268.2594 H   0  0  0  0  0  0  0  0  0  0  0  0
   96.8796   46.1934  267.1429 H   0  0  0  0  0  0  0  0  0  0  0  0
   91.4799   47.2891  263.8947 H   0  0  0  0  0  0  0  0  0  0  0  0
   88.1483   46.3700  262.0650 H   0  0  0  0  0  0  0  0  0  0  0  0
   88.7305   44.7981  262.7106 H   0  0  0  0  0  0  0  0  0  0  0  0
   86.8643   45.6397  264.0199 H   0  0  0  0  0  0  0  0  0  0  0  0
   87.4214   45.7233  268.7136 H   0  0  0  0  0  0  0  0  0  0  0  0
   87.9356   44.6732  267.3500 H   0  0  0  0  0  0  0  0  0  0  0  0
   89.0558   45.9204  267.9951 H   0  0  0  0  0  0  0  0  0  0  0  0
   94.9066   51.7763  267.2231 H   0  0  0  0  0  0  0  0  0  0  0  0
   95.2201   53.8156  268.5973 H   0  0  0  0  0  0  0  0  0  0  0  0
   91.4064   51.3157  269.0676 H   0  0  0  0  0  0  0  0  0  0  0  0
   92.5084   50.3441  270.1011 H   0  0  0  0  0  0  0  0  0  0  0  0
   91.0932   52.0881  271.8827 H   0  0  0  0  0  0  0  0  0  0  0  0
   92.5514   55.1111  273.4879 H   0  0  0  0  0  0  0  0  0  0  0  0
  1  2  2  0  0  0  0
  1  5  1  0  0  0  0
  2  3  1  0  0  0  0
  2 12  1  0  0  0  0
  3  4  2  0  0  0  0
  4  6  1  0  0  0  0
  4 11  1  0  0  0  0
  5  6  2  0  0  0  0
  5 10  1  0  0  0  0
  6  7  1  0  0  0  0
  7  8  2  0  0  0  0
  8  9  1  0  0  0  0
  9 10  2  0  0  0  0
 11 23  2  0  0  0  0
 11 25  1  0  0  0  0
 12 13  2  0  0  0  0
 13 14  1  0  0  0  0
 13 18  1  0  0  0  0
 14 15  2  0  0  0  0
 15 16  1  0  0  0  0
 16 17  1  0  0  0  0
 17 18  2  0  0  0  0
 18 19  1  0  0  0  0
 19 20  2  0  0  0  0
 19 21  2  0  0  0  0
 19 22  1  0  0  0  0
 23 24  1  0  0  0  0
 24 27  2  0  0  0  0
 25 26  1  0  0  0  0
 26 27  1  0  0  0  0
 26 30  2  0  0  0  0
 27 28  1  0  0  0  0
 28 29  1  0  0  0  0
 29 30  1  0  0  0  0
 29 31  2  0  0  0  0
  1 32  1  0  0  0  0
  3 33  1  0  0  0  0
  8 34  1  0  0  0  0
  9 35  1  0  0  0  0
 14 36  1  0  0  0  0
 16 37  1  0  0  0  0
 16 38  1  0  0  0  0
 17 39  1  0  0  0  0
 22 40  1  0  0  0  0
 22 41  1  0  0  0  0
 22 42  1  0  0  0  0
 23 43  1  0  0  0  0
 24 44  1  0  0  0  0
 25 45  1  0  0  0  0
 25 46  1  0  0  0  0
 30 47  1  0  0  0  0
 31 48  1  0  0  0  0
M  END
> <ID>
68

> <IC50[uM]>
0.068

$$$$
68
  -OEChem-05192314313D
 Structure written by MMmdl.
 48 52  0     1  0  0  0  0  0999 V2000
   92.5906   47.2900  266.3444 C   0  0  0  0  0  0  0  0  0  0  0  0
   91.5700   48.2152  266.5159 C   0  0  0  0  0  0  0  0  0  0  0  0
   91.8167   49.4248  267.1546 C   0  0  0  0  0  0  0  0  0  0  0  0
   93.0889   49.7623  267.6340 C   0  0  0  0  0  0  0  0  0  0  0  0
   93.8920   47.5770  266.8285 C   0  0  0  0  0  0  0  0  0  0  0  0
   94.1480   48.8244  267.4865 C   0  0  0  0  0  0  0  0  0  0  0  0
   95.3850   49.0832  268.0126 N   0  0  0  0  0  0  0  0  0  0  0  0
   96.3430   48.1354  267.8658 C   0  0  0  0  0  0  0  0  0  0  0  0
   96.0897   46.9257  267.2216 C   0  0  0  0  0  0  0  0  0  0  0  0
   94.8705   46.6478  266.6904 N   0  0  0  0  0  0  0  0  0  0  0  0
   93.2613   51.0285  268.3807 C   0  0  0  0  0  0  0  0  0  0  0  0
   90.2520   47.9338  266.1399 N   0  0  0  0  0  0  0  0  0  0  0  0
   89.7015   47.1928  265.0832 C   0  0  0  0  0  0  0  0  0  0  0  0
   90.4532   46.9549  263.9208 C   0  0  0  0  0  0  0  0  0  0  0  0
   89.9543   46.3298  262.8373 N   0  0  0  0  0  0  0  0  0  0  0  0
   88.6785   45.8812  262.8956 C   0  0  0  0  0  0  0  0  0  0  0  0
   87.8678   46.0387  264.0101 C   0  0  0  0  0  0  0  0  0  0  0  0
   88.3733   46.7249  265.1240 C   0  0  0  0  0  0  0  0  0  0  0  0
   87.3145   46.9352  266.5561 S   0  0  0  0  0  0  0  0  0  0  0  0
   87.5376   48.2780  267.1026 O   0  0  0  0  0  0  0  0  0  0  0  0
   85.9614   46.5209  266.1752 O   0  0  0  0  0  0  0  0  0  0  0  0
   88.0033   45.6830  267.7810 C   0  0  0  0  0  0  0  0  0  0  0  0
   94.2676   51.9515  268.0760 C   0  0  0  0  0  0  0  0  0  0  0  0
   94.4607   53.0907  268.8507 C   0  0  0  0  0  0  0  0  0  0  0  0
   92.4286   51.2390  269.4665 C   0  0  0  0  0  0  0  0  0  0  0  0
   92.6104   52.3297  270.2980 C   0  0  0  0  0  0  0  0  0  0  0  0
   93.6343   53.2671  269.9747 C   0  0  3  0  0  0  0  0  0  0  0  0
   93.6567   54.5790  271.1456 S   0  0  0  0  0  0  0  0  0  0  0  0
   92.4470   53.7602  272.0760 C   0  0  0  0  0  0  0  0  0  0  0  0
   91.9259   52.6515  271.4883 C   0  0  0  0  0  0  0  0  0  0  0  0
   92.0631   54.2673  273.2652 N   0  0  0  0  0  0  0  0  0  0  0  0
   92.3938   46.3537  265.8434 H   0  0  0  0  0  0  0  0  0  0  0  0
   91.0044   50.1244  267.2850 H   0  0  0  0  0  0  0  0  0  0  0  0
   97.3310   48.3231  268.2594 H   0  0  0  0  0  0  0  0  0  0  0  0
   96.8796   46.1934  267.1429 H   0  0  0  0  0  0  0  0  0  0  0  0
   90.7912   47.9418  263.5718 H   0  0  0  0  0  0  0  0  0  0  0  0
   91.3227   46.3610  264.2391 H   0  0  0  0  0  0  0  0  0  0  0  0
   88.2719   45.3759  262.0320 H   0  0  0  0  0  0  0  0  0  0  0  0
   86.8643   45.6397  264.0199 H   0  0  0  0  0  0  0  0  0  0  0  0
   87.4214   45.7233  268.7136 H   0  0  0  0  0  0  0  0  0  0  0  0
   87.9356   44.6732  267.3500 H   0  0  0  0  0  0  0  0  0  0  0  0
   89.0558   45.9204  267.9951 H   0  0  0  0  0  0  0  0  0  0  0  0
   94.9066   51.7763  267.2231 H   0  0  0  0  0  0  0  0  0  0  0  0
   95.2201   53.8156  268.5973 H   0  0  0  0  0  0  0  0  0  0  0  0
   91.6272   50.5432  269.6669 H   0  0  0  0  0  0  0  0  0  0  0  0
   94.3489   52.7023  270.5914 H   0  0  0  0  0  0  0  0  0  0  0  0
   91.0932   52.0881  271.8827 H   0  0  0  0  0  0  0  0  0  0  0  0
   92.5514   55.1111  273.4879 H   0  0  0  0  0  0  0  0  0  0  0  0
  1  2  2  0  0  0  0
  1  5  1  0  0  0  0
  2  3  1  0  0  0  0
  2 12  1  0  0  0  0
  3  4  2  0  0  0  0
  4  6  1  0  0  0  0
  4 11  1  0  0  0  0
  5  6  2  0  0  0  0
  5 10  1  0  0  0  0
  6  7  1  0  0  0  0
  7  8  2  0  0  0  0
  8  9  1  0  0  0  0
  9 10  2  0  0  0  0
 11 23  1  0  0  0  0
 11 25  2  0  0  0  0
 12 13  2  0  0  0  0
 13 14  1  0  0  0  0
 13 18  1  0  0  0  0
 14 15  1  0  0  0  0
 15 16  2  0  0  0  0
 16 17  1  0  0  0  0
 17 18  2  0  0  0  0
 18 19  1  0  0  0  0
 19 20  2  0  0  0  0
 19 21  2  0  0  0  0
 19 22  1  0  0  0  0
 23 24  2  0  0  0  0
 24 27  1  0  0  0  0
 25 26  1  0  0  0  0
 26 27  1  0  0  0  0
 26 30  2  0  0  0  0
 27 28  1  0  0  0  0
 28 29  1  0  0  0  0
 29 30  1  0  0  0  0
 29 31  2  0  0  0  0
  1 32  1  0  0  0  0
  3 33  1  0  0  0  0
  8 34  1  0  0  0  0
  9 35  1  0  0  0  0
 14 36  1  0  0  0  0
 14 37  1  0  0  0  0
 16 38  1  0  0  0  0
 17 39  1  0  0  0  0
 22 40  1  0  0  0  0
 22 41  1  0  0  0  0
 22 42  1  0  0  0  0
 23 43  1  0  0  0  0
 24 44  1  0  0  0  0
 25 45  1  0  0  0  0
 27 46  1  0  0  0  0
 30 47  1  0  0  0  0
 31 48  1  0  0  0  0
M  END
> <ID>
68

> <IC50[uM]>
0.068

$$$$
68
  -OEChem-05192314313D
 Structure written by MMmdl.
 48 52  0     0  0  0  0  0  0999 V2000
   92.5906   47.2900  266.3444 C   0  0  0  0  0  0  0  0  0  0  0  0
   91.5700   48.2152  266.5159 C   0  0  0  0  0  0  0  0  0  0  0  0
   91.8167   49.4248  267.1546 C   0  0  0  0  0  0  0  0  0  0  0  0
   93.0889   49.7623  267.6340 C   0  0  0  0  0  0  0  0  0  0  0  0
   93.8920   47.5770  266.8285 C   0  0  0  0  0  0  0  0  0  0  0  0
   94.1480   48.8244  267.4865 C   0  0  0  0  0  0  0  0  0  0  0  0
   95.3850   49.0832  268.0126 N   0  0  0  0  0  0  0  0  0  0  0  0
   96.3430   48.1354  267.8658 C   0  0  0  0  0  0  0  0  0  0  0  0
   96.0897   46.9257  267.2216 C   0  0  0  0  0  0  0  0  0  0  0  0
   94.8705   46.6478  266.6904 N   0  0  0  0  0  0  0  0  0  0  0  0
   93.2613   51.0285  268.3807 C   0  0  0  0  0  0  0  0  0  0  0  0
   90.2520   47.9338  266.1399 N   0  0  0  0  0  0  0  0  0  0  0  0
   89.7015   47.1928  265.0832 C   0  0  0  0  0  0  0  0  0  0  0  0
   90.4532   46.9549  263.9208 C   0  0  0  0  0  0  0  0  0  0  0  0
   89.9543   46.3298  262.8373 N   0  0  0  0  0  0  0  0  0  0  0  0
   88.6785   45.8812  262.8956 C   0  0  0  0  0  0  0  0  0  0  0  0
   87.8678   46.0387  264.0101 C   0  0  0  0  0  0  0  0  0  0  0  0
   88.3733   46.7249  265.1240 C   0  0  0  0  0  0  0  0  0  0  0  0
   87.3145   46.9352  266.5561 S   0  0  0  0  0  0  0  0  0  0  0  0
   87.5376   48.2780  267.1026 O   0  0  0  0  0  0  0  0  0  0  0  0
   85.9614   46.5209  266.1752 O   0  0  0  0  0  0  0  0  0  0  0  0
   88.0033   45.6830  267.7810 C   0  0  0  0  0  0  0  0  0  0  0  0
   94.2676   51.9515  268.0760 C   0  0  0  0  0  0  0  0  0  0  0  0
   94.4607   53.0907  268.8507 C   0  0  0  0  0  0  0  0  0  0  0  0
   92.4286   51.2390  269.4665 C   0  0  0  0  0  0  0  0  0  0  0  0
   92.6104   52.3297  270.2980 C   0  0  0  0  0  0  0  0  0  0  0  0
   93.6343   53.2671  269.9747 C   0  0  0  0  0  0  0  0  0  0  0  0
   93.6567   54.5790  271.1456 S   0  0  0  0  0  0  0  0  0  0  0  0
   92.4470   53.7602  272.0760 C   0  0  0  0  0  0  0  0  0  0  0  0
   91.9259   52.6515  271.4883 C   0  0  0  0  0  0  0  0  0  0  0  0
   92.0631   54.2673  273.2652 N   0  0  0  0  0  0  0  0  0  0  0  0
   92.3938   46.3537  265.8434 H   0  0  0  0  0  0  0  0  0  0  0  0
   91.0044   50.1244  267.2850 H   0  0  0  0  0  0  0  0  0  0  0  0
   97.3310   48.3231  268.2594 H   0  0  0  0  0  0  0  0  0  0  0  0
   96.8796   46.1934  267.1429 H   0  0  0  0  0  0  0  0  0  0  0  0
   90.7912   47.9418  263.5718 H   0  0  0  0  0  0  0  0  0  0  0  0
   91.3227   46.3610  264.2391 H   0  0  0  0  0  0  0  0  0  0  0  0
   88.2719   45.3759  262.0320 H   0  0  0  0  0  0  0  0  0  0  0  0
   86.8643   45.6397  264.0199 H   0  0  0  0  0  0  0  0  0  0  0  0
   87.4214   45.7233  268.7136 H   0  0  0  0  0  0  0  0  0  0  0  0
   87.9356   44.6732  267.3500 H   0  0  0  0  0  0  0  0  0  0  0  0
   89.0558   45.9204  267.9951 H   0  0  0  0  0  0  0  0  0  0  0  0
   95.2167   51.3959  268.0971 H   0  0  0  0  0  0  0  0  0  0  0  0
   94.0700   52.3010  267.0519 H   0  0  0  0  0  0  0  0  0  0  0  0
   95.2201   53.8156  268.5973 H   0  0  0  0  0  0  0  0  0  0  0  0
   91.6272   50.5432  269.6669 H   0  0  0  0  0  0  0  0  0  0  0  0
   91.0932   52.0881  271.8827 H   0  0  0  0  0  0  0  0  0  0  0  0
   92.5514   55.1111  273.4879 H   0  0  0  0  0  0  0  0  0  0  0  0
  1  2  2  0  0  0  0
  1  5  1  0  0  0  0
  2  3  1  0  0  0  0
  2 12  1  0  0  0  0
  3  4  2  0  0  0  0
  4  6  1  0  0  0  0
  4 11  1  0  0  0  0
  5  6  2  0  0  0  0
  5 10  1  0  0  0  0
  6  7  1  0  0  0  0
  7  8  2  0  0  0  0
  8  9  1  0  0  0  0
  9 10  2  0  0  0  0
 11 23  1  0  0  0  0
 11 25  2  0  0  0  0
 12 13  2  0  0  0  0
 13 14  1  0  0  0  0
 13 18  1  0  0  0  0
 14 15  1  0  0  0  0
 15 16  2  0  0  0  0
 16 17  1  0  0  0  0
 17 18  2  0  0  0  0
 18 19  1  0  0  0  0
 19 20  2  0  0  0  0
 19 21  2  0  0  0  0
 19 22  1  0  0  0  0
 23 24  1  0  0  0  0
 24 27  2  0  0  0  0
 25 26  1  0  0  0  0
 26 27  1  0  0  0  0
 26 30  2  0  0  0  0
 27 28  1  0  0  0  0
 28 29  1  0  0  0  0
 29 30  1  0  0  0  0
 29 31  2  0  0  0  0
  1 32  1  0  0  0  0
  3 33  1  0  0  0  0
  8 34  1  0  0  0  0
  9 35  1  0  0  0  0
 14 36  1  0  0  0  0
 14 37  1  0  0  0  0
 16 38  1  0  0  0  0
 17 39  1  0  0  0  0
 22 40  1  0  0  0  0
 22 41  1  0  0  0  0
 22 42  1  0  0  0  0
 23 43  1  0  0  0  0
 23 44  1  0  0  0  0
 24 45  1  0  0  0  0
 25 46  1  0  0  0  0
 30 47  1  0  0  0  0
 31 48  1  0  0  0  0
M  END
> <ID>
68

> <IC50[uM]>
0.068

$$$$
68
  -OEChem-05192314313D
 Structure written by MMmdl.
 48 52  0     0  0  0  0  0  0999 V2000
   92.5906   47.2900  266.3444 C   0  0  0  0  0  0  0  0  0  0  0  0
   91.5700   48.2152  266.5159 C   0  0  0  0  0  0  0  0  0  0  0  0
   91.8167   49.4248  267.1546 C   0  0  0  0  0  0  0  0  0  0  0  0
   93.0889   49.7623  267.6340 C   0  0  0  0  0  0  0  0  0  0  0  0
   93.8920   47.5770  266.8285 C   0  0  0  0  0  0  0  0  0  0  0  0
   94.1480   48.8244  267.4865 C   0  0  0  0  0  0  0  0  0  0  0  0
   95.3850   49.0832  268.0126 N   0  0  0  0  0  0  0  0  0  0  0  0
   96.3430   48.1354  267.8658 C   0  0  0  0  0  0  0  0  0  0  0  0
   96.0897   46.9257  267.2216 C   0  0  0  0  0  0  0  0  0  0  0  0
   94.8705   46.6478  266.6904 N   0  0  0  0  0  0  0  0  0  0  0  0
   93.2613   51.0285  268.3807 C   0  0  0  0  0  0  0  0  0  0  0  0
   90.2520   47.9338  266.1399 N   0  0  0  0  0  0  0  0  0  0  0  0
   89.7015   47.1928  265.0832 C   0  0  0  0  0  0  0  0  0  0  0  0
   90.4532   46.9549  263.9208 C   0  0  0  0  0  0  0  0  0  0  0  0
   89.9543   46.3298  262.8373 N   0  0  0  0  0  0  0  0  0  0  0  0
   88.6785   45.8812  262.8956 C   0  0  0  0  0  0  0  0  0  0  0  0
   87.8678   46.0387  264.0101 C   0  0  0  0  0  0  0  0  0  0  0  0
   88.3733   46.7249  265.1240 C   0  0  0  0  0  0  0  0  0  0  0  0
   87.3145   46.9352  266.5561 S   0  0  0  0  0  0  0  0  0  0  0  0
   87.5376   48.2780  267.1026 O   0  0  0  0  0  0  0  0  0  0  0  0
   85.9614   46.5209  266.1752 O   0  0  0  0  0  0  0  0  0  0  0  0
   88.0033   45.6830  267.7810 C   0  0  0  0  0  0  0  0  0  0  0  0
   94.2676   51.9515  268.0760 C   0  0  0  0  0  0  0  0  0  0  0  0
   94.4607   53.0907  268.8507 C   0  0  0  0  0  0  0  0  0  0  0  0
   92.4286   51.2390  269.4665 C   0  0  0  0  0  0  0  0  0  0  0  0
   92.6104   52.3297  270.2980 C   0  0  0  0  0  0  0  0  0  0  0  0
   93.6343   53.2671  269.9747 C   0  0  0  0  0  0  0  0  0  0  0  0
   93.6567   54.5790  271.1456 S   0  0  0  0  0  0  0  0  0  0  0  0
   92.4470   53.7602  272.0760 C   0  0  0  0  0  0  0  0  0  0  0  0
   91.9259   52.6515  271.4883 C   0  0  0  0  0  0  0  0  0  0  0  0
   92.0631   54.2673  273.2652 N   0  0  0  0  0  0  0  0  0  0  0  0
   92.3938   46.3537  265.8434 H   0  0  0  0  0  0  0  0  0  0  0  0
   91.0044   50.1244  267.2850 H   0  0  0  0  0  0  0  0  0  0  0  0
   97.3310   48.3231  268.2594 H   0  0  0  0  0  0  0  0  0  0  0  0
   96.8796   46.1934  267.1429 H   0  0  0  0  0  0  0  0  0  0  0  0
   90.7912   47.9418  263.5718 H   0  0  0  0  0  0  0  0  0  0  0  0
   91.3227   46.3610  264.2391 H   0  0  0  0  0  0  0  0  0  0  0  0
   88.2719   45.3759  262.0320 H   0  0  0  0  0  0  0  0  0  0  0  0
   86.8643   45.6397  264.0199 H   0  0  0  0  0  0  0  0  0  0  0  0
   87.4214   45.7233  268.7136 H   0  0  0  0  0  0  0  0  0  0  0  0
   87.9356   44.6732  267.3500 H   0  0  0  0  0  0  0  0  0  0  0  0
   89.0558   45.9204  267.9951 H   0  0  0  0  0  0  0  0  0  0  0  0
   94.9066   51.7763  267.2231 H   0  0  0  0  0  0  0  0  0  0  0  0
   95.2201   53.8156  268.5973 H   0  0  0  0  0  0  0  0  0  0  0  0
   91.4064   51.3157  269.0676 H   0  0  0  0  0  0  0  0  0  0  0  0
   92.5084   50.3441  270.1011 H   0  0  0  0  0  0  0  0  0  0  0  0
   91.0932   52.0881  271.8827 H   0  0  0  0  0  0  0  0  0  0  0  0
   92.5514   55.1111  273.4879 H   0  0  0  0  0  0  0  0  0  0  0  0
  1  2  2  0  0  0  0
  1  5  1  0  0  0  0
  2  3  1  0  0  0  0
  2 12  1  0  0  0  0
  3  4  2  0  0  0  0
  4  6  1  0  0  0  0
  4 11  1  0  0  0  0
  5  6  2  0  0  0  0
  5 10  1  0  0  0  0
  6  7  1  0  0  0  0
  7  8  2  0  0  0  0
  8  9  1  0  0  0  0
  9 10  2  0  0  0  0
 11 23  2  0  0  0  0
 11 25  1  0  0  0  0
 12 13  2  0  0  0  0
 13 14  1  0  0  0  0
 13 18  1  0  0  0  0
 14 15  1  0  0  0  0
 15 16  2  0  0  0  0
 16 17  1  0  0  0  0
 17 18  2  0  0  0  0
 18 19  1  0  0  0  0
 19 20  2  0  0  0  0
 19 21  2  0  0  0  0
 19 22  1  0  0  0  0
 23 24  1  0  0  0  0
 24 27  2  0  0  0  0
 25 26  1  0  0  0  0
 26 27  1  0  0  0  0
 26 30  2  0  0  0  0
 27 28  1  0  0  0  0
 28 29  1  0  0  0  0
 29 30  1  0  0  0  0
 29 31  2  0  0  0  0
  1 32  1  0  0  0  0
  3 33  1  0  0  0  0
  8 34  1  0  0  0  0
  9 35  1  0  0  0  0
 14 36  1  0  0  0  0
 14 37  1  0  0  0  0
 16 38  1  0  0  0  0
 17 39  1  0  0  0  0
 22 40  1  0  0  0  0
 22 41  1  0  0  0  0
 22 42  1  0  0  0  0
 23 43  1  0  0  0  0
 24 44  1  0  0  0  0
 25 45  1  0  0  0  0
 25 46  1  0  0  0  0
 30 47  1  0  0  0  0
 31 48  1  0  0  0  0
M  END
> <ID>
68

> <IC50[uM]>
0.068

$$$$
68
  -OEChem-05192314313D
 Structure written by MMmdl.
 48 52  0     1  0  0  0  0  0999 V2000
   92.5906   47.2900  266.3444 C   0  0  0  0  0  0  0  0  0  0  0  0
   91.5700   48.2152  266.5159 C   0  0  0  0  0  0  0  0  0  0  0  0
   91.8167   49.4248  267.1546 C   0  0  0  0  0  0  0  0  0  0  0  0
   93.0889   49.7623  267.6340 C   0  0  0  0  0  0  0  0  0  0  0  0
   93.8920   47.5770  266.8285 C   0  0  0  0  0  0  0  0  0  0  0  0
   94.1480   48.8244  267.4865 C   0  0  3  0  0  0  0  0  0  0  0  0
   95.3850   49.0832  268.0126 N   0  0  0  0  0  0  0  0  0  0  0  0
   96.3430   48.1354  267.8658 C   0  0  0  0  0  0  0  0  0  0  0  0
   96.0897   46.9257  267.2216 C   0  0  0  0  0  0  0  0  0  0  0  0
   94.8705   46.6478  266.6904 N   0  0  0  0  0  0  0  0  0  0  0  0
   93.2613   51.0285  268.3807 C   0  0  0  0  0  0  0  0  0  0  0  0
   90.2520   47.9338  266.1399 N   0  0  0  0  0  0  0  0  0  0  0  0
   89.7015   47.1928  265.0832 C   0  0  0  0  0  0  0  0  0  0  0  0
   90.4532   46.9549  263.9208 C   0  0  0  0  0  0  0  0  0  0  0  0
   89.9543   46.3298  262.8373 N   0  0  0  0  0  0  0  0  0  0  0  0
   88.6785   45.8812  262.8956 C   0  0  0  0  0  0  0  0  0  0  0  0
   87.8678   46.0387  264.0101 C   0  0  0  0  0  0  0  0  0  0  0  0
   88.3733   46.7249  265.1240 C   0  0  0  0  0  0  0  0  0  0  0  0
   87.3145   46.9352  266.5561 S   0  0  0  0  0  0  0  0  0  0  0  0
   87.5376   48.2780  267.1026 O   0  0  0  0  0  0  0  0  0  0  0  0
   85.9614   46.5209  266.1752 O   0  0  0  0  0  0  0  0  0  0  0  0
   88.0033   45.6830  267.7810 C   0  0  0  0  0  0  0  0  0  0  0  0
   94.2676   51.9515  268.0760 C   0  0  0  0  0  0  0  0  0  0  0  0
   94.4607   53.0907  268.8507 C   0  0  0  0  0  0  0  0  0  0  0  0
   92.4286   51.2390  269.4665 C   0  0  0  0  0  0  0  0  0  0  0  0
   92.6104   52.3297  270.2980 C   0  0  0  0  0  0  0  0  0  0  0  0
   93.6343   53.2671  269.9747 C   0  0  3  0  0  0  0  0  0  0  0  0
   93.6567   54.5790  271.1456 S   0  0  0  0  0  0  0  0  0  0  0  0
   92.4470   53.7602  272.0760 C   0  0  0  0  0  0  0  0  0  0  0  0
   91.9259   52.6515  271.4883 C   0  0  0  0  0  0  0  0  0  0  0  0
   92.0631   54.2673  273.2652 N   0  0  0  0  0  0  0  0  0  0  0  0
   92.3938   46.3537  265.8434 H   0  0  0  0  0  0  0  0  0  0  0  0
   91.0044   50.1244  267.2850 H   0  0  0  0  0  0  0  0  0  0  0  0
   94.4415   49.2843  266.5314 H   0  0  0  0  0  0  0  0  0  0  0  0
   97.3310   48.3231  268.2594 H   0  0  0  0  0  0  0  0  0  0  0  0
   96.8796   46.1934  267.1429 H   0  0  0  0  0  0  0  0  0  0  0  0
   91.4799   47.2891  263.8947 H   0  0  0  0  0  0  0  0  0  0  0  0
   88.2719   45.3759  262.0320 H   0  0  0  0  0  0  0  0  0  0  0  0
   86.8643   45.6397  264.0199 H   0  0  0  0  0  0  0  0  0  0  0  0
   87.4214   45.7233  268.7136 H   0  0  0  0  0  0  0  0  0  0  0  0
   87.9356   44.6732  267.3500 H   0  0  0  0  0  0  0  0  0  0  0  0
   89.0558   45.9204  267.9951 H   0  0  0  0  0  0  0  0  0  0  0  0
   94.9066   51.7763  267.2231 H   0  0  0  0  0  0  0  0  0  0  0  0
   95.2201   53.8156  268.5973 H   0  0  0  0  0  0  0  0  0  0  0  0
   91.6272   50.5432  269.6669 H   0  0  0  0  0  0  0  0  0  0  0  0
   94.3489   52.7023  270.5914 H   0  0  0  0  0  0  0  0  0  0  0  0
   91.0932   52.0881  271.8827 H   0  0  0  0  0  0  0  0  0  0  0  0
   92.5514   55.1111  273.4879 H   0  0  0  0  0  0  0  0  0  0  0  0
  1  2  1  0  0  0  0
  1  5  2  0  0  0  0
  2  3  1  0  0  0  0
  2 12  2  3  0  0  0
  3  4  2  0  0  0  0
  4  6  1  0  0  0  0
  4 11  1  0  0  0  0
  5  6  1  0  0  0  0
  5 10  1  0  0  0  0
  6  7  1  0  0  0  0
  7  8  2  0  0  0  0
  8  9  1  0  0  0  0
  9 10  2  0  0  0  0
 11 23  1  0  0  0  0
 11 25  2  0  0  0  0
 12 13  1  0  0  0  0
 13 14  2  0  0  0  0
 13 18  1  0  0  0  0
 14 15  1  0  0  0  0
 15 16  2  0  0  0  0
 16 17  1  0  0  0  0
 17 18  2  0  0  0  0
 18 19  1  0  0  0  0
 19 20  2  0  0  0  0
 19 21  2  0  0  0  0
 19 22  1  0  0  0  0
 23 24  2  0  0  0  0
 24 27  1  0  0  0  0
 25 26  1  0  0  0  0
 26 27  1  0  0  0  0
 26 30  2  0  0  0  0
 27 28  1  0  0  0  0
 28 29  1  0  0  0  0
 29 30  1  0  0  0  0
 29 31  2  0  0  0  0
  1 32  1  0  0  0  0
  3 33  1  0  0  0  0
  6 34  1  0  0  0  0
  8 35  1  0  0  0  0
  9 36  1  0  0  0  0
 14 37  1  0  0  0  0
 16 38  1  0  0  0  0
 17 39  1  0  0  0  0
 22 40  1  0  0  0  0
 22 41  1  0  0  0  0
 22 42  1  0  0  0  0
 23 43  1  0  0  0  0
 24 44  1  0  0  0  0
 25 45  1  0  0  0  0
 27 46  1  0  0  0  0
 30 47  1  0  0  0  0
 31 48  1  0  0  0  0
M  END
> <ID>
68

> <IC50[uM]>
0.068

$$$$
68
  -OEChem-05192314313D
 Structure written by MMmdl.
 48 52  0     1  0  0  0  0  0999 V2000
   92.5906   47.2900  266.3444 C   0  0  0  0  0  0  0  0  0  0  0  0
   91.5700   48.2152  266.5159 C   0  0  0  0  0  0  0  0  0  0  0  0
   91.8167   49.4248  267.1546 C   0  0  0  0  0  0  0  0  0  0  0  0
   93.0889   49.7623  267.6340 C   0  0  0  0  0  0  0  0  0  0  0  0
   93.8920   47.5770  266.8285 C   0  0  0  0  0  0  0  0  0  0  0  0
   94.1480   48.8244  267.4865 C   0  0  3  0  0  0  0  0  0  0  0  0
   95.3850   49.0832  268.0126 N   0  0  0  0  0  0  0  0  0  0  0  0
   96.3430   48.1354  267.8658 C   0  0  0  0  0  0  0  0  0  0  0  0
   96.0897   46.9257  267.2216 C   0  0  0  0  0  0  0  0  0  0  0  0
   94.8705   46.6478  266.6904 N   0  0  0  0  0  0  0  0  0  0  0  0
   93.2613   51.0285  268.3807 C   0  0  0  0  0  0  0  0  0  0  0  0
   90.2520   47.9338  266.1399 N   0  0  0  0  0  0  0  0  0  0  0  0
   89.7015   47.1928  265.0832 C   0  0  0  0  0  0  0  0  0  0  0  0
   90.4532   46.9549  263.9208 C   0  0  0  0  0  0  0  0  0  0  0  0
   89.9543   46.3298  262.8373 N   0  0  0  0  0  0  0  0  0  0  0  0
   88.6785   45.8812  262.8956 C   0  0  0  0  0  0  0  0  0  0  0  0
   87.8678   46.0387  264.0101 C   0  0  0  0  0  0  0  0  0  0  0  0
   88.3733   46.7249  265.1240 C   0  0  0  0  0  0  0  0  0  0  0  0
   87.3145   46.9352  266.5561 S   0  0  0  0  0  0  0  0  0  0  0  0
   87.5376   48.2780  267.1026 O   0  0  0  0  0  0  0  0  0  0  0  0
   85.9614   46.5209  266.1752 O   0  0  0  0  0  0  0  0  0  0  0  0
   88.0033   45.6830  267.7810 C   0  0  0  0  0  0  0  0  0  0  0  0
   94.2676   51.9515  268.0760 C   0  0  0  0  0  0  0  0  0  0  0  0
   94.4607   53.0907  268.8507 C   0  0  0  0  0  0  0  0  0  0  0  0
   92.4286   51.2390  269.4665 C   0  0  0  0  0  0  0  0  0  0  0  0
   92.6104   52.3297  270.2980 C   0  0  0  0  0  0  0  0  0  0  0  0
   93.6343   53.2671  269.9747 C   0  0  0  0  0  0  0  0  0  0  0  0
   93.6567   54.5790  271.1456 S   0  0  0  0  0  0  0  0  0  0  0  0
   92.4470   53.7602  272.0760 C   0  0  0  0  0  0  0  0  0  0  0  0
   91.9259   52.6515  271.4883 C   0  0  0  0  0  0  0  0  0  0  0  0
   92.0631   54.2673  273.2652 N   0  0  0  0  0  0  0  0  0  0  0  0
   92.3938   46.3537  265.8434 H   0  0  0  0  0  0  0  0  0  0  0  0
   91.0044   50.1244  267.2850 H   0  0  0  0  0  0  0  0  0  0  0  0
   94.4415   49.2843  266.5314 H   0  0  0  0  0  0  0  0  0  0  0  0
   97.3310   48.3231  268.2594 H   0  0  0  0  0  0  0  0  0  0  0  0
   96.8796   46.1934  267.1429 H   0  0  0  0  0  0  0  0  0  0  0  0
   91.4799   47.2891  263.8947 H   0  0  0  0  0  0  0  0  0  0  0  0
   88.2719   45.3759  262.0320 H   0  0  0  0  0  0  0  0  0  0  0  0
   86.8643   45.6397  264.0199 H   0  0  0  0  0  0  0  0  0  0  0  0
   87.4214   45.7233  268.7136 H   0  0  0  0  0  0  0  0  0  0  0  0
   87.9356   44.6732  267.3500 H   0  0  0  0  0  0  0  0  0  0  0  0
   89.0558   45.9204  267.9951 H   0  0  0  0  0  0  0  0  0  0  0  0
   95.2167   51.3959  268.0971 H   0  0  0  0  0  0  0  0  0  0  0  0
   94.0700   52.3010  267.0519 H   0  0  0  0  0  0  0  0  0  0  0  0
   95.2201   53.8156  268.5973 H   0  0  0  0  0  0  0  0  0  0  0  0
   91.6272   50.5432  269.6669 H   0  0  0  0  0  0  0  0  0  0  0  0
   91.0932   52.0881  271.8827 H   0  0  0  0  0  0  0  0  0  0  0  0
   92.5514   55.1111  273.4879 H   0  0  0  0  0  0  0  0  0  0  0  0
  1  2  1  0  0  0  0
  1  5  2  0  0  0  0
  2  3  1  0  0  0  0
  2 12  2  3  0  0  0
  3  4  2  0  0  0  0
  4  6  1  0  0  0  0
  4 11  1  0  0  0  0
  5  6  1  0  0  0  0
  5 10  1  0  0  0  0
  6  7  1  0  0  0  0
  7  8  2  0  0  0  0
  8  9  1  0  0  0  0
  9 10  2  0  0  0  0
 11 23  1  0  0  0  0
 11 25  2  0  0  0  0
 12 13  1  0  0  0  0
 13 14  2  0  0  0  0
 13 18  1  0  0  0  0
 14 15  1  0  0  0  0
 15 16  2  0  0  0  0
 16 17  1  0  0  0  0
 17 18  2  0  0  0  0
 18 19  1  0  0  0  0
 19 20  2  0  0  0  0
 19 21  2  0  0  0  0
 19 22  1  0  0  0  0
 23 24  1  0  0  0  0
 24 27  2  0  0  0  0
 25 26  1  0  0  0  0
 26 27  1  0  0  0  0
 26 30  2  0  0  0  0
 27 28  1  0  0  0  0
 28 29  1  0  0  0  0
 29 30  1  0  0  0  0
 29 31  2  0  0  0  0
  1 32  1  0  0  0  0
  3 33  1  0  0  0  0
  6 34  1  0  0  0  0
  8 35  1  0  0  0  0
  9 36  1  0  0  0  0
 14 37  1  0  0  0  0
 16 38  1  0  0  0  0
 17 39  1  0  0  0  0
 22 40  1  0  0  0  0
 22 41  1  0  0  0  0
 22 42  1  0  0  0  0
 23 43  1  0  0  0  0
 23 44  1  0  0  0  0
 24 45  1  0  0  0  0
 25 46  1  0  0  0  0
 30 47  1  0  0  0  0
 31 48  1  0  0  0  0
M  END
> <ID>
68

> <IC50[uM]>
0.068

$$$$
68
  -OEChem-05192314313D
 Structure written by MMmdl.
 48 52  0     1  0  0  0  0  0999 V2000
   92.5906   47.2900  266.3444 C   0  0  0  0  0  0  0  0  0  0  0  0
   91.5700   48.2152  266.5159 C   0  0  0  0  0  0  0  0  0  0  0  0
   91.8167   49.4248  267.1546 C   0  0  0  0  0  0  0  0  0  0  0  0
   93.0889   49.7623  267.6340 C   0  0  0  0  0  0  0  0  0  0  0  0
   93.8920   47.5770  266.8285 C   0  0  0  0  0  0  0  0  0  0  0  0
   94.1480   48.8244  267.4865 C   0  0  3  0  0  0  0  0  0  0  0  0
   95.3850   49.0832  268.0126 N   0  0  0  0  0  0  0  0  0  0  0  0
   96.3430   48.1354  267.8658 C   0  0  0  0  0  0  0  0  0  0  0  0
   96.0897   46.9257  267.2216 C   0  0  0  0  0  0  0  0  0  0  0  0
   94.8705   46.6478  266.6904 N   0  0  0  0  0  0  0  0  0  0  0  0
   93.2613   51.0285  268.3807 C   0  0  0  0  0  0  0  0  0  0  0  0
   90.2520   47.9338  266.1399 N   0  0  0  0  0  0  0  0  0  0  0  0
   89.7015   47.1928  265.0832 C   0  0  0  0  0  0  0  0  0  0  0  0
   90.4532   46.9549  263.9208 C   0  0  0  0  0  0  0  0  0  0  0  0
   89.9543   46.3298  262.8373 N   0  0  0  0  0  0  0  0  0  0  0  0
   88.6785   45.8812  262.8956 C   0  0  0  0  0  0  0  0  0  0  0  0
   87.8678   46.0387  264.0101 C   0  0  0  0  0  0  0  0  0  0  0  0
   88.3733   46.7249  265.1240 C   0  0  0  0  0  0  0  0  0  0  0  0
   87.3145   46.9352  266.5561 S   0  0  0  0  0  0  0  0  0  0  0  0
   87.5376   48.2780  267.1026 O   0  0  0  0  0  0  0  0  0  0  0  0
   85.9614   46.5209  266.1752 O   0  0  0  0  0  0  0  0  0  0  0  0
   88.0033   45.6830  267.7810 C   0  0  0  0  0  0  0  0  0  0  0  0
   94.2676   51.9515  268.0760 C   0  0  0  0  0  0  0  0  0  0  0  0
   94.4607   53.0907  268.8507 C   0  0  0  0  0  0  0  0  0  0  0  0
   92.4286   51.2390  269.4665 C   0  0  0  0  0  0  0  0  0  0  0  0
   92.6104   52.3297  270.2980 C   0  0  0  0  0  0  0  0  0  0  0  0
   93.6343   53.2671  269.9747 C   0  0  0  0  0  0  0  0  0  0  0  0
   93.6567   54.5790  271.1456 S   0  0  0  0  0  0  0  0  0  0  0  0
   92.4470   53.7602  272.0760 C   0  0  0  0  0  0  0  0  0  0  0  0
   91.9259   52.6515  271.4883 C   0  0  0  0  0  0  0  0  0  0  0  0
   92.0631   54.2673  273.2652 N   0  0  0  0  0  0  0  0  0  0  0  0
   92.3938   46.3537  265.8434 H   0  0  0  0  0  0  0  0  0  0  0  0
   91.0044   50.1244  267.2850 H   0  0  0  0  0  0  0  0  0  0  0  0
   94.4415   49.2843  266.5314 H   0  0  0  0  0  0  0  0  0  0  0  0
   97.3310   48.3231  268.2594 H   0  0  0  0  0  0  0  0  0  0  0  0
   96.8796   46.1934  267.1429 H   0  0  0  0  0  0  0  0  0  0  0  0
   91.4799   47.2891  263.8947 H   0  0  0  0  0  0  0  0  0  0  0  0
   88.2719   45.3759  262.0320 H   0  0  0  0  0  0  0  0  0  0  0  0
   86.8643   45.6397  264.0199 H   0  0  0  0  0  0  0  0  0  0  0  0
   87.4214   45.7233  268.7136 H   0  0  0  0  0  0  0  0  0  0  0  0
   87.9356   44.6732  267.3500 H   0  0  0  0  0  0  0  0  0  0  0  0
   89.0558   45.9204  267.9951 H   0  0  0  0  0  0  0  0  0  0  0  0
   94.9066   51.7763  267.2231 H   0  0  0  0  0  0  0  0  0  0  0  0
   95.2201   53.8156  268.5973 H   0  0  0  0  0  0  0  0  0  0  0  0
   91.4064   51.3157  269.0676 H   0  0  0  0  0  0  0  0  0  0  0  0
   92.5084   50.3441  270.1011 H   0  0  0  0  0  0  0  0  0  0  0  0
   91.0932   52.0881  271.8827 H   0  0  0  0  0  0  0  0  0  0  0  0
   92.5514   55.1111  273.4879 H   0  0  0  0  0  0  0  0  0  0  0  0
  1  2  1  0  0  0  0
  1  5  2  0  0  0  0
  2  3  1  0  0  0  0
  2 12  2  3  0  0  0
  3  4  2  0  0  0  0
  4  6  1  0  0  0  0
  4 11  1  0  0  0  0
  5  6  1  0  0  0  0
  5 10  1  0  0  0  0
  6  7  1  0  0  0  0
  7  8  2  0  0  0  0
  8  9  1  0  0  0  0
  9 10  2  0  0  0  0
 11 23  2  0  0  0  0
 11 25  1  0  0  0  0
 12 13  1  0  0  0  0
 13 14  2  0  0  0  0
 13 18  1  0  0  0  0
 14 15  1  0  0  0  0
 15 16  2  0  0  0  0
 16 17  1  0  0  0  0
 17 18  2  0  0  0  0
 18 19  1  0  0  0  0
 19 20  2  0  0  0  0
 19 21  2  0  0  0  0
 19 22  1  0  0  0  0
 23 24  1  0  0  0  0
 24 27  2  0  0  0  0
 25 26  1  0  0  0  0
 26 27  1  0  0  0  0
 26 30  2  0  0  0  0
 27 28  1  0  0  0  0
 28 29  1  0  0  0  0
 29 30  1  0  0  0  0
 29 31  2  0  0  0  0
  1 32  1  0  0  0  0
  3 33  1  0  0  0  0
  6 34  1  0  0  0  0
  8 35  1  0  0  0  0
  9 36  1  0  0  0  0
 14 37  1  0  0  0  0
 16 38  1  0  0  0  0
 17 39  1  0  0  0  0
 22 40  1  0  0  0  0
 22 41  1  0  0  0  0
 22 42  1  0  0  0  0
 23 43  1  0  0  0  0
 24 44  1  0  0  0  0
 25 45  1  0  0  0  0
 25 46  1  0  0  0  0
 30 47  1  0  0  0  0
 31 48  1  0  0  0  0
M  END
> <ID>
68

> <IC50[uM]>
0.068

$$$$
68
  -OEChem-05192314313D
 Structure written by MMmdl.
 48 52  0     1  0  0  0  0  0999 V2000
   92.5906   47.2900  266.3444 C   0  0  0  0  0  0  0  0  0  0  0  0
   91.5700   48.2152  266.5159 C   0  0  0  0  0  0  0  0  0  0  0  0
   91.8167   49.4248  267.1546 C   0  0  0  0  0  0  0  0  0  0  0  0
   93.0889   49.7623  267.6340 C   0  0  0  0  0  0  0  0  0  0  0  0
   93.8920   47.5770  266.8285 C   0  0  0  0  0  0  0  0  0  0  0  0
   94.1480   48.8244  267.4865 C   0  0  0  0  0  0  0  0  0  0  0  0
   95.3850   49.0832  268.0126 N   0  0  0  0  0  0  0  0  0  0  0  0
   96.3430   48.1354  267.8658 C   0  0  0  0  0  0  0  0  0  0  0  0
   96.0897   46.9257  267.2216 C   0  0  0  0  0  0  0  0  0  0  0  0
   94.8705   46.6478  266.6904 N   0  0  0  0  0  0  0  0  0  0  0  0
   93.2613   51.0285  268.3807 C   0  0  0  0  0  0  0  0  0  0  0  0
   90.2520   47.9338  266.1399 N   0  0  0  0  0  0  0  0  0  0  0  0
   89.7015   47.1928  265.0832 C   0  0  0  0  0  0  0  0  0  0  0  0
   90.4532   46.9549  263.9208 C   0  0  0  0  0  0  0  0  0  0  0  0
   89.9543   46.3298  262.8373 N   0  0  0  0  0  0  0  0  0  0  0  0
   88.6785   45.8812  262.8956 C   0  0  0  0  0  0  0  0  0  0  0  0
   87.8678   46.0387  264.0101 C   0  0  0  0  0  0  0  0  0  0  0  0
   88.3733   46.7249  265.1240 C   0  0  0  0  0  0  0  0  0  0  0  0
   87.3145   46.9352  266.5561 S   0  0  0  0  0  0  0  0  0  0  0  0
   87.5376   48.2780  267.1026 O   0  0  0  0  0  0  0  0  0  0  0  0
   85.9614   46.5209  266.1752 O   0  0  0  0  0  0  0  0  0  0  0  0
   88.0033   45.6830  267.7810 C   0  0  0  0  0  0  0  0  0  0  0  0
   94.2676   51.9515  268.0760 C   0  0  0  0  0  0  0  0  0  0  0  0
   94.4607   53.0907  268.8507 C   0  0  0  0  0  0  0  0  0  0  0  0
   92.4286   51.2390  269.4665 C   0  0  0  0  0  0  0  0  0  0  0  0
   92.6104   52.3297  270.2980 C   0  0  0  0  0  0  0  0  0  0  0  0
   93.6343   53.2671  269.9747 C   0  0  3  0  0  0  0  0  0  0  0  0
   93.6567   54.5790  271.1456 S   0  0  0  0  0  0  0  0  0  0  0  0
   92.4470   53.7602  272.0760 C   0  0  0  0  0  0  0  0  0  0  0  0
   91.9259   52.6515  271.4883 C   0  0  0  0  0  0  0  0  0  0  0  0
   92.0631   54.2673  273.2652 N   0  0  0  0  0  0  0  0  0  0  0  0
   92.3938   46.3537  265.8434 H   0  0  0  0  0  0  0  0  0  0  0  0
   91.0044   50.1244  267.2850 H   0  0  0  0  0  0  0  0  0  0  0  0
   97.1665   48.6122  267.3139 H   0  0  0  0  0  0  0  0  0  0  0  0
   96.6815   47.8794  268.8806 H   0  0  0  0  0  0  0  0  0  0  0  0
   96.8796   46.1934  267.1429 H   0  0  0  0  0  0  0  0  0  0  0  0
   91.4799   47.2891  263.8947 H   0  0  0  0  0  0  0  0  0  0  0  0
   88.2719   45.3759  262.0320 H   0  0  0  0  0  0  0  0  0  0  0  0
   86.8643   45.6397  264.0199 H   0  0  0  0  0  0  0  0  0  0  0  0
   87.4214   45.7233  268.7136 H   0  0  0  0  0  0  0  0  0  0  0  0
   87.9356   44.6732  267.3500 H   0  0  0  0  0  0  0  0  0  0  0  0
   89.0558   45.9204  267.9951 H   0  0  0  0  0  0  0  0  0  0  0  0
   94.9066   51.7763  267.2231 H   0  0  0  0  0  0  0  0  0  0  0  0
   95.2201   53.8156  268.5973 H   0  0  0  0  0  0  0  0  0  0  0  0
   91.6272   50.5432  269.6669 H   0  0  0  0  0  0  0  0  0  0  0  0
   94.3489   52.7023  270.5914 H   0  0  0  0  0  0  0  0  0  0  0  0
   91.0932   52.0881  271.8827 H   0  0  0  0  0  0  0  0  0  0  0  0
   92.5514   55.1111  273.4879 H   0  0  0  0  0  0  0  0  0  0  0  0
  1  2  1  0  0  0  0
  1  5  2  0  0  0  0
  2  3  1  0  0  0  0
  2 12  2  3  0  0  0
  3  4  2  0  0  0  0
  4  6  1  0  0  0  0
  4 11  1  0  0  0  0
  5  6  1  0  0  0  0
  5 10  1  0  0  0  0
  6  7  2  0  0  0  0
  7  8  1  0  0  0  0
  8  9  1  0  0  0  0
  9 10  2  0  0  0  0
 11 23  1  0  0  0  0
 11 25  2  0  0  0  0
 12 13  1  0  0  0  0
 13 14  2  0  0  0  0
 13 18  1  0  0  0  0
 14 15  1  0  0  0  0
 15 16  2  0  0  0  0
 16 17  1  0  0  0  0
 17 18  2  0  0  0  0
 18 19  1  0  0  0  0
 19 20  2  0  0  0  0
 19 21  2  0  0  0  0
 19 22  1  0  0  0  0
 23 24  2  0  0  0  0
 24 27  1  0  0  0  0
 25 26  1  0  0  0  0
 26 27  1  0  0  0  0
 26 30  2  0  0  0  0
 27 28  1  0  0  0  0
 28 29  1  0  0  0  0
 29 30  1  0  0  0  0
 29 31  2  0  0  0  0
  1 32  1  0  0  0  0
  3 33  1  0  0  0  0
  8 34  1  0  0  0  0
  8 35  1  0  0  0  0
  9 36  1  0  0  0  0
 14 37  1  0  0  0  0
 16 38  1  0  0  0  0
 17 39  1  0  0  0  0
 22 40  1  0  0  0  0
 22 41  1  0  0  0  0
 22 42  1  0  0  0  0
 23 43  1  0  0  0  0
 24 44  1  0  0  0  0
 25 45  1  0  0  0  0
 27 46  1  0  0  0  0
 30 47  1  0  0  0  0
 31 48  1  0  0  0  0
M  END
> <ID>
68

> <IC50[uM]>
0.068

$$$$
68
  -OEChem-05192314313D
 Structure written by MMmdl.
 48 52  0     0  0  0  0  0  0999 V2000
   92.5906   47.2900  266.3444 C   0  0  0  0  0  0  0  0  0  0  0  0
   91.5700   48.2152  266.5159 C   0  0  0  0  0  0  0  0  0  0  0  0
   91.8167   49.4248  267.1546 C   0  0  0  0  0  0  0  0  0  0  0  0
   93.0889   49.7623  267.6340 C   0  0  0  0  0  0  0  0  0  0  0  0
   93.8920   47.5770  266.8285 C   0  0  0  0  0  0  0  0  0  0  0  0
   94.1480   48.8244  267.4865 C   0  0  0  0  0  0  0  0  0  0  0  0
   95.3850   49.0832  268.0126 N   0  0  0  0  0  0  0  0  0  0  0  0
   96.3430   48.1354  267.8658 C   0  0  0  0  0  0  0  0  0  0  0  0
   96.0897   46.9257  267.2216 C   0  0  0  0  0  0  0  0  0  0  0  0
   94.8705   46.6478  266.6904 N   0  0  0  0  0  0  0  0  0  0  0  0
   93.2613   51.0285  268.3807 C   0  0  0  0  0  0  0  0  0  0  0  0
   90.2520   47.9338  266.1399 N   0  0  0  0  0  0  0  0  0  0  0  0
   89.7015   47.1928  265.0832 C   0  0  0  0  0  0  0  0  0  0  0  0
   90.4532   46.9549  263.9208 C   0  0  0  0  0  0  0  0  0  0  0  0
   89.9543   46.3298  262.8373 N   0  0  0  0  0  0  0  0  0  0  0  0
   88.6785   45.8812  262.8956 C   0  0  0  0  0  0  0  0  0  0  0  0
   87.8678   46.0387  264.0101 C   0  0  0  0  0  0  0  0  0  0  0  0
   88.3733   46.7249  265.1240 C   0  0  0  0  0  0  0  0  0  0  0  0
   87.3145   46.9352  266.5561 S   0  0  0  0  0  0  0  0  0  0  0  0
   87.5376   48.2780  267.1026 O   0  0  0  0  0  0  0  0  0  0  0  0
   85.9614   46.5209  266.1752 O   0  0  0  0  0  0  0  0  0  0  0  0
   88.0033   45.6830  267.7810 C   0  0  0  0  0  0  0  0  0  0  0  0
   94.2676   51.9515  268.0760 C   0  0  0  0  0  0  0  0  0  0  0  0
   94.4607   53.0907  268.8507 C   0  0  0  0  0  0  0  0  0  0  0  0
   92.4286   51.2390  269.4665 C   0  0  0  0  0  0  0  0  0  0  0  0
   92.6104   52.3297  270.2980 C   0  0  0  0  0  0  0  0  0  0  0  0
   93.6343   53.2671  269.9747 C   0  0  0  0  0  0  0  0  0  0  0  0
   93.6567   54.5790  271.1456 S   0  0  0  0  0  0  0  0  0  0  0  0
   92.4470   53.7602  272.0760 C   0  0  0  0  0  0  0  0  0  0  0  0
   91.9259   52.6515  271.4883 C   0  0  0  0  0  0  0  0  0  0  0  0
   92.0631   54.2673  273.2652 N   0  0  0  0  0  0  0  0  0  0  0  0
   92.3938   46.3537  265.8434 H   0  0  0  0  0  0  0  0  0  0  0  0
   91.0044   50.1244  267.2850 H   0  0  0  0  0  0  0  0  0  0  0  0
   97.1665   48.6122  267.3139 H   0  0  0  0  0  0  0  0  0  0  0  0
   96.6815   47.8794  268.8806 H   0  0  0  0  0  0  0  0  0  0  0  0
   96.8796   46.1934  267.1429 H   0  0  0  0  0  0  0  0  0  0  0  0
   91.4799   47.2891  263.8947 H   0  0  0  0  0  0  0  0  0  0  0  0
   88.2719   45.3759  262.0320 H   0  0  0  0  0  0  0  0  0  0  0  0
   86.8643   45.6397  264.0199 H   0  0  0  0  0  0  0  0  0  0  0  0
   87.4214   45.7233  268.7136 H   0  0  0  0  0  0  0  0  0  0  0  0
   87.9356   44.6732  267.3500 H   0  0  0  0  0  0  0  0  0  0  0  0
   89.0558   45.9204  267.9951 H   0  0  0  0  0  0  0  0  0  0  0  0
   95.2167   51.3959  268.0971 H   0  0  0  0  0  0  0  0  0  0  0  0
   94.0700   52.3010  267.0519 H   0  0  0  0  0  0  0  0  0  0  0  0
   95.2201   53.8156  268.5973 H   0  0  0  0  0  0  0  0  0  0  0  0
   91.6272   50.5432  269.6669 H   0  0  0  0  0  0  0  0  0  0  0  0
   91.0932   52.0881  271.8827 H   0  0  0  0  0  0  0  0  0  0  0  0
   92.5514   55.1111  273.4879 H   0  0  0  0  0  0  0  0  0  0  0  0
  1  2  1  0  0  0  0
  1  5  2  0  0  0  0
  2  3  1  0  0  0  0
  2 12  2  3  0  0  0
  3  4  2  0  0  0  0
  4  6  1  0  0  0  0
  4 11  1  0  0  0  0
  5  6  1  0  0  0  0
  5 10  1  0  0  0  0
  6  7  2  0  0  0  0
  7  8  1  0  0  0  0
  8  9  1  0  0  0  0
  9 10  2  0  0  0  0
 11 23  1  0  0  0  0
 11 25  2  0  0  0  0
 12 13  1  0  0  0  0
 13 14  2  0  0  0  0
 13 18  1  0  0  0  0
 14 15  1  0  0  0  0
 15 16  2  0  0  0  0
 16 17  1  0  0  0  0
 17 18  2  0  0  0  0
 18 19  1  0  0  0  0
 19 20  2  0  0  0  0
 19 21  2  0  0  0  0
 19 22  1  0  0  0  0
 23 24  1  0  0  0  0
 24 27  2  0  0  0  0
 25 26  1  0  0  0  0
 26 27  1  0  0  0  0
 26 30  2  0  0  0  0
 27 28  1  0  0  0  0
 28 29  1  0  0  0  0
 29 30  1  0  0  0  0
 29 31  2  0  0  0  0
  1 32  1  0  0  0  0
  3 33  1  0  0  0  0
  8 34  1  0  0  0  0
  8 35  1  0  0  0  0
  9 36  1  0  0  0  0
 14 37  1  0  0  0  0
 16 38  1  0  0  0  0
 17 39  1  0  0  0  0
 22 40  1  0  0  0  0
 22 41  1  0  0  0  0
 22 42  1  0  0  0  0
 23 43  1  0  0  0  0
 23 44  1  0  0  0  0
 24 45  1  0  0  0  0
 25 46  1  0  0  0  0
 30 47  1  0  0  0  0
 31 48  1  0  0  0  0
M  END
> <ID>
68

> <IC50[uM]>
0.068

$$$$
68
  -OEChem-05192314313D
 Structure written by MMmdl.
 48 52  0     0  0  0  0  0  0999 V2000
   92.5906   47.2900  266.3444 C   0  0  0  0  0  0  0  0  0  0  0  0
   91.5700   48.2152  266.5159 C   0  0  0  0  0  0  0  0  0  0  0  0
   91.8167   49.4248  267.1546 C   0  0  0  0  0  0  0  0  0  0  0  0
   93.0889   49.7623  267.6340 C   0  0  0  0  0  0  0  0  0  0  0  0
   93.8920   47.5770  266.8285 C   0  0  0  0  0  0  0  0  0  0  0  0
   94.1480   48.8244  267.4865 C   0  0  0  0  0  0  0  0  0  0  0  0
   95.3850   49.0832  268.0126 N   0  0  0  0  0  0  0  0  0  0  0  0
   96.3430   48.1354  267.8658 C   0  0  0  0  0  0  0  0  0  0  0  0
   96.0897   46.9257  267.2216 C   0  0  0  0  0  0  0  0  0  0  0  0
   94.8705   46.6478  266.6904 N   0  0  0  0  0  0  0  0  0  0  0  0
   93.2613   51.0285  268.3807 C   0  0  0  0  0  0  0  0  0  0  0  0
   90.2520   47.9338  266.1399 N   0  0  0  0  0  0  0  0  0  0  0  0
   89.7015   47.1928  265.0832 C   0  0  0  0  0  0  0  0  0  0  0  0
   90.4532   46.9549  263.9208 C   0  0  0  0  0  0  0  0  0  0  0  0
   89.9543   46.3298  262.8373 N   0  0  0  0  0  0  0  0  0  0  0  0
   88.6785   45.8812  262.8956 C   0  0  0  0  0  0  0  0  0  0  0  0
   87.8678   46.0387  264.0101 C   0  0  0  0  0  0  0  0  0  0  0  0
   88.3733   46.7249  265.1240 C   0  0  0  0  0  0  0  0  0  0  0  0
   87.3145   46.9352  266.5561 S   0  0  0  0  0  0  0  0  0  0  0  0
   87.5376   48.2780  267.1026 O   0  0  0  0  0  0  0  0  0  0  0  0
   85.9614   46.5209  266.1752 O   0  0  0  0  0  0  0  0  0  0  0  0
   88.0033   45.6830  267.7810 C   0  0  0  0  0  0  0  0  0  0  0  0
   94.2676   51.9515  268.0760 C   0  0  0  0  0  0  0  0  0  0  0  0
   94.4607   53.0907  268.8507 C   0  0  0  0  0  0  0  0  0  0  0  0
   92.4286   51.2390  269.4665 C   0  0  0  0  0  0  0  0  0  0  0  0
   92.6104   52.3297  270.2980 C   0  0  0  0  0  0  0  0  0  0  0  0
   93.6343   53.2671  269.9747 C   0  0  0  0  0  0  0  0  0  0  0  0
   93.6567   54.5790  271.1456 S   0  0  0  0  0  0  0  0  0  0  0  0
   92.4470   53.7602  272.0760 C   0  0  0  0  0  0  0  0  0  0  0  0
   91.9259   52.6515  271.4883 C   0  0  0  0  0  0  0  0  0  0  0  0
   92.0631   54.2673  273.2652 N   0  0  0  0  0  0  0  0  0  0  0  0
   92.3938   46.3537  265.8434 H   0  0  0  0  0  0  0  0  0  0  0  0
   91.0044   50.1244  267.2850 H   0  0  0  0  0  0  0  0  0  0  0  0
   97.1665   48.6122  267.3139 H   0  0  0  0  0  0  0  0  0  0  0  0
   96.6815   47.8794  268.8806 H   0  0  0  0  0  0  0  0  0  0  0  0
   96.8796   46.1934  267.1429 H   0  0  0  0  0  0  0  0  0  0  0  0
   91.4799   47.2891  263.8947 H   0  0  0  0  0  0  0  0  0  0  0  0
   88.2719   45.3759  262.0320 H   0  0  0  0  0  0  0  0  0  0  0  0
   86.8643   45.6397  264.0199 H   0  0  0  0  0  0  0  0  0  0  0  0
   87.4214   45.7233  268.7136 H   0  0  0  0  0  0  0  0  0  0  0  0
   87.9356   44.6732  267.3500 H   0  0  0  0  0  0  0  0  0  0  0  0
   89.0558   45.9204  267.9951 H   0  0  0  0  0  0  0  0  0  0  0  0
   94.9066   51.7763  267.2231 H   0  0  0  0  0  0  0  0  0  0  0  0
   95.2201   53.8156  268.5973 H   0  0  0  0  0  0  0  0  0  0  0  0
   91.4064   51.3157  269.0676 H   0  0  0  0  0  0  0  0  0  0  0  0
   92.5084   50.3441  270.1011 H   0  0  0  0  0  0  0  0  0  0  0  0
   91.0932   52.0881  271.8827 H   0  0  0  0  0  0  0  0  0  0  0  0
   92.5514   55.1111  273.4879 H   0  0  0  0  0  0  0  0  0  0  0  0
  1  2  1  0  0  0  0
  1  5  2  0  0  0  0
  2  3  1  0  0  0  0
  2 12  2  3  0  0  0
  3  4  2  0  0  0  0
  4  6  1  0  0  0  0
  4 11  1  0  0  0  0
  5  6  1  0  0  0  0
  5 10  1  0  0  0  0
  6  7  2  0  0  0  0
  7  8  1  0  0  0  0
  8  9  1  0  0  0  0
  9 10  2  0  0  0  0
 11 23  2  0  0  0  0
 11 25  1  0  0  0  0
 12 13  1  0  0  0  0
 13 14  2  0  0  0  0
 13 18  1  0  0  0  0
 14 15  1  0  0  0  0
 15 16  2  0  0  0  0
 16 17  1  0  0  0  0
 17 18  2  0  0  0  0
 18 19  1  0  0  0  0
 19 20  2  0  0  0  0
 19 21  2  0  0  0  0
 19 22  1  0  0  0  0
 23 24  1  0  0  0  0
 24 27  2  0  0  0  0
 25 26  1  0  0  0  0
 26 27  1  0  0  0  0
 26 30  2  0  0  0  0
 27 28  1  0  0  0  0
 28 29  1  0  0  0  0
 29 30  1  0  0  0  0
 29 31  2  0  0  0  0
  1 32  1  0  0  0  0
  3 33  1  0  0  0  0
  8 34  1  0  0  0  0
  8 35  1  0  0  0  0
  9 36  1  0  0  0  0
 14 37  1  0  0  0  0
 16 38  1  0  0  0  0
 17 39  1  0  0  0  0
 22 40  1  0  0  0  0
 22 41  1  0  0  0  0
 22 42  1  0  0  0  0
 23 43  1  0  0  0  0
 24 44  1  0  0  0  0
 25 45  1  0  0  0  0
 25 46  1  0  0  0  0
 30 47  1  0  0  0  0
 31 48  1  0  0  0  0
M  END
> <ID>
68

> <IC50[uM]>
0.068

$$$$
