3b
  -OEChem-05192314333D
 Structure written by MMmdl.
 39 41  0     0  0  0  0  0  0999 V2000
  -14.5843  -14.7116  -27.5536 C   0  0  0  0  0  0  0  0  0  0  0  0
  -15.1563  -15.5168  -26.5725 C   0  0  0  0  0  0  0  0  0  0  0  0
  -14.6839  -13.3308  -27.4341 C   0  0  0  0  0  0  0  0  0  0  0  0
  -15.8704  -14.9642  -25.5050 C   0  0  0  0  0  0  0  0  0  0  0  0
  -14.9849  -16.8888  -26.6806 N   0  0  0  0  0  0  0  0  0  0  0  0
  -15.3785  -12.7815  -26.3579 C   0  0  0  0  0  0  0  0  0  0  0  0
  -15.9898  -13.5830  -25.3915 C   0  0  0  0  0  0  0  0  0  0  0  0
  -16.4951  -15.9110  -24.5008 C   0  0  0  0  0  0  0  0  0  0  0  0
  -16.1292  -17.2016  -24.7265 N   0  0  0  0  0  0  0  0  0  0  0  0
  -17.2749  -15.6059  -23.5994 O   0  0  0  0  0  0  0  0  0  0  0  0
  -15.4369  -17.7151  -25.8030 C   0  0  0  0  0  0  0  0  0  0  0  0
  -15.2562  -19.1608  -25.9636 C   0  0  0  0  0  0  0  0  0  0  0  0
  -14.5830  -19.6077  -27.1049 C   0  0  0  0  0  0  0  0  0  0  0  0
  -14.3265  -20.9447  -27.2876 C   0  0  0  0  0  0  0  0  0  0  0  0
  -14.7480  -21.8824  -26.3421 C   0  0  0  0  0  0  0  0  0  0  0  0
  -15.4530  -21.4469  -25.2145 C   0  0  0  0  0  0  0  0  0  0  0  0
  -15.7105  -20.0928  -25.0243 C   0  0  0  0  0  0  0  0  0  0  0  0
  -15.4673  -11.4547  -26.2714 F   0  0  0  0  0  0  0  0  0  0  0  0
  -14.3949  -23.3652  -26.5136 C   0  0  0  0  0  0  0  0  0  0  0  0
  -15.5854  -24.2010  -26.0389 C   0  0  0  0  0  0  0  0  0  0  0  0
  -13.1695  -23.7636  -25.6881 C   0  0  0  0  0  0  0  0  0  0  0  0
  -14.0156  -23.6918  -27.9583 C   0  0  0  0  0  0  0  0  0  0  0  0
  -14.0709  -15.1534  -28.3948 H   0  0  0  0  0  0  0  0  0  0  0  0
  -14.2259  -12.6872  -28.1706 H   0  0  0  0  0  0  0  0  0  0  0  0
  -16.5421  -13.1410  -24.5754 H   0  0  0  0  0  0  0  0  0  0  0  0
  -16.3957  -17.8609  -24.0234 H   0  0  0  0  0  0  0  0  0  0  0  0
  -14.2617  -18.8948  -27.8498 H   0  0  0  0  0  0  0  0  0  0  0  0
  -13.7951  -21.2732  -28.1686 H   0  0  0  0  0  0  0  0  0  0  0  0
  -15.7994  -22.1663  -24.4873 H   0  0  0  0  0  0  0  0  0  0  0  0
  -16.2591  -19.7624  -24.1547 H   0  0  0  0  0  0  0  0  0  0  0  0
  -15.3526  -25.2699  -26.1536 H   0  0  0  0  0  0  0  0  0  0  0  0
  -15.7884  -23.9816  -24.9803 H   0  0  0  0  0  0  0  0  0  0  0  0
  -16.4714  -23.9521  -26.6414 H   0  0  0  0  0  0  0  0  0  0  0  0
  -12.9545  -24.8314  -25.8419 H   0  0  0  0  0  0  0  0  0  0  0  0
  -12.3029  -23.1656  -26.0065 H   0  0  0  0  0  0  0  0  0  0  0  0
  -13.3701  -23.5799  -24.6223 H   0  0  0  0  0  0  0  0  0  0  0  0
  -13.7699  -24.7608  -28.0407 H   0  0  0  0  0  0  0  0  0  0  0  0
  -14.8617  -23.4580  -28.6212 H   0  0  0  0  0  0  0  0  0  0  0  0
  -13.1423  -23.0912  -28.2527 H   0  0  0  0  0  0  0  0  0  0  0  0
  1  2  2  0  0  0  0
  1  3  1  0  0  0  0
  2  4  1  0  0  0  0
  2  5  1  0  0  0  0
  3  6  2  0  0  0  0
  4  7  2  0  0  0  0
  4  8  1  0  0  0  0
  5 11  2  0  0  0  0
  6  7  1  0  0  0  0
  6 18  1  0  0  0  0
  8  9  1  0  0  0  0
  8 10  2  0  0  0  0
  9 11  1  0  0  0  0
 11 12  1  0  0  0  0
 12 13  2  0  0  0  0
 12 17  1  0  0  0  0
 13 14  1  0  0  0  0
 14 15  2  0  0  0  0
 15 16  1  0  0  0  0
 15 19  1  0  0  0  0
 16 17  2  0  0  0  0
 19 20  1  0  0  0  0
 19 21  1  0  0  0  0
 19 22  1  0  0  0  0
  1 23  1  0  0  0  0
  3 24  1  0  0  0  0
  7 25  1  0  0  0  0
  9 26  1  0  0  0  0
 13 27  1  0  0  0  0
 14 28  1  0  0  0  0
 16 29  1  0  0  0  0
 17 30  1  0  0  0  0
 20 31  1  0  0  0  0
 20 32  1  0  0  0  0
 20 33  1  0  0  0  0
 21 34  1  0  0  0  0
 21 35  1  0  0  0  0
 21 36  1  0  0  0  0
 22 37  1  0  0  0  0
 22 38  1  0  0  0  0
 22 39  1  0  0  0  0
M  END
> <Name>
3b

> <IC50[nM]>
3.6

$$$$
3b
  -OEChem-05192314333D
 Structure written by MMmdl.
 39 41  0     0  0  0  0  0  0999 V2000
  -14.5843  -14.7116  -27.5536 C   0  0  0  0  0  0  0  0  0  0  0  0
  -15.1563  -15.5168  -26.5725 C   0  0  0  0  0  0  0  0  0  0  0  0
  -14.6839  -13.3308  -27.4341 C   0  0  0  0  0  0  0  0  0  0  0  0
  -15.8704  -14.9642  -25.5050 C   0  0  0  0  0  0  0  0  0  0  0  0
  -14.9849  -16.8888  -26.6806 N   0  0  0  0  0  0  0  0  0  0  0  0
  -15.3785  -12.7815  -26.3579 C   0  0  0  0  0  0  0  0  0  0  0  0
  -15.9898  -13.5830  -25.3915 C   0  0  0  0  0  0  0  0  0  0  0  0
  -16.4951  -15.9110  -24.5008 C   0  0  0  0  0  0  0  0  0  0  0  0
  -16.1292  -17.2016  -24.7265 N   0  0  0  0  0  0  0  0  0  0  0  0
  -17.2749  -15.6059  -23.5994 O   0  0  0  0  0  0  0  0  0  0  0  0
  -15.4369  -17.7151  -25.8030 C   0  0  0  0  0  0  0  0  0  0  0  0
  -15.2562  -19.1608  -25.9636 C   0  0  0  0  0  0  0  0  0  0  0  0
  -14.5830  -19.6077  -27.1049 C   0  0  0  0  0  0  0  0  0  0  0  0
  -14.3265  -20.9447  -27.2876 C   0  0  0  0  0  0  0  0  0  0  0  0
  -14.7480  -21.8824  -26.3421 C   0  0  0  0  0  0  0  0  0  0  0  0
  -15.4530  -21.4469  -25.2145 C   0  0  0  0  0  0  0  0  0  0  0  0
  -15.7105  -20.0928  -25.0243 C   0  0  0  0  0  0  0  0  0  0  0  0
  -15.4673  -11.4547  -26.2714 F   0  0  0  0  0  0  0  0  0  0  0  0
  -14.3949  -23.3652  -26.5136 C   0  0  0  0  0  0  0  0  0  0  0  0
  -15.5854  -24.2010  -26.0389 C   0  0  0  0  0  0  0  0  0  0  0  0
  -13.1695  -23.7636  -25.6881 C   0  0  0  0  0  0  0  0  0  0  0  0
  -14.0156  -23.6918  -27.9583 C   0  0  0  0  0  0  0  0  0  0  0  0
  -14.0709  -15.1534  -28.3948 H   0  0  0  0  0  0  0  0  0  0  0  0
  -14.2259  -12.6872  -28.1706 H   0  0  0  0  0  0  0  0  0  0  0  0
  -14.4908  -17.2504  -27.4713 H   0  0  0  0  0  0  0  0  0  0  0  0
  -16.5421  -13.1410  -24.5754 H   0  0  0  0  0  0  0  0  0  0  0  0
  -14.2617  -18.8948  -27.8498 H   0  0  0  0  0  0  0  0  0  0  0  0
  -13.7951  -21.2732  -28.1686 H   0  0  0  0  0  0  0  0  0  0  0  0
  -15.7994  -22.1663  -24.4873 H   0  0  0  0  0  0  0  0  0  0  0  0
  -16.2591  -19.7624  -24.1547 H   0  0  0  0  0  0  0  0  0  0  0  0
  -15.3526  -25.2699  -26.1536 H   0  0  0  0  0  0  0  0  0  0  0  0
  -15.7884  -23.9816  -24.9803 H   0  0  0  0  0  0  0  0  0  0  0  0
  -16.4714  -23.9521  -26.6414 H   0  0  0  0  0  0  0  0  0  0  0  0
  -12.9545  -24.8314  -25.8419 H   0  0  0  0  0  0  0  0  0  0  0  0
  -12.3029  -23.1656  -26.0065 H   0  0  0  0  0  0  0  0  0  0  0  0
  -13.3701  -23.5799  -24.6223 H   0  0  0  0  0  0  0  0  0  0  0  0
  -13.7699  -24.7608  -28.0407 H   0  0  0  0  0  0  0  0  0  0  0  0
  -14.8617  -23.4580  -28.6212 H   0  0  0  0  0  0  0  0  0  0  0  0
  -13.1423  -23.0912  -28.2527 H   0  0  0  0  0  0  0  0  0  0  0  0
  1  2  2  0  0  0  0
  1  3  1  0  0  0  0
  2  4  1  0  0  0  0
  2  5  1  0  0  0  0
  3  6  2  0  0  0  0
  4  7  2  0  0  0  0
  4  8  1  0  0  0  0
  5 11  1  0  0  0  0
  6  7  1  0  0  0  0
  6 18  1  0  0  0  0
  8  9  1  0  0  0  0
  8 10  2  0  0  0  0
  9 11  2  0  0  0  0
 11 12  1  0  0  0  0
 12 13  2  0  0  0  0
 12 17  1  0  0  0  0
 13 14  1  0  0  0  0
 14 15  2  0  0  0  0
 15 16  1  0  0  0  0
 15 19  1  0  0  0  0
 16 17  2  0  0  0  0
 19 20  1  0  0  0  0
 19 21  1  0  0  0  0
 19 22  1  0  0  0  0
  1 23  1  0  0  0  0
  3 24  1  0  0  0  0
  5 25  1  0  0  0  0
  7 26  1  0  0  0  0
 13 27  1  0  0  0  0
 14 28  1  0  0  0  0
 16 29  1  0  0  0  0
 17 30  1  0  0  0  0
 20 31  1  0  0  0  0
 20 32  1  0  0  0  0
 20 33  1  0  0  0  0
 21 34  1  0  0  0  0
 21 35  1  0  0  0  0
 21 36  1  0  0  0  0
 22 37  1  0  0  0  0
 22 38  1  0  0  0  0
 22 39  1  0  0  0  0
M  END
> <Name>
3b

> <IC50[nM]>
3.6

$$$$
3b
  -OEChem-05192314333D
 Structure written by MMmdl.
 39 41  0     0  0  0  0  0  0999 V2000
  -14.5843  -14.7116  -27.5536 C   0  0  0  0  0  0  0  0  0  0  0  0
  -15.1563  -15.5168  -26.5725 C   0  0  0  0  0  0  0  0  0  0  0  0
  -14.6839  -13.3308  -27.4341 C   0  0  0  0  0  0  0  0  0  0  0  0
  -15.8704  -14.9642  -25.5050 C   0  0  0  0  0  0  0  0  0  0  0  0
  -14.9849  -16.8888  -26.6806 N   0  0  0  0  0  0  0  0  0  0  0  0
  -15.3785  -12.7815  -26.3579 C   0  0  0  0  0  0  0  0  0  0  0  0
  -15.9898  -13.5830  -25.3915 C   0  0  0  0  0  0  0  0  0  0  0  0
  -16.4951  -15.9110  -24.5008 C   0  0  0  0  0  0  0  0  0  0  0  0
  -16.1292  -17.2016  -24.7265 N   0  0  0  0  0  0  0  0  0  0  0  0
  -17.2749  -15.6059  -23.5994 O   0  0  0  0  0  0  0  0  0  0  0  0
  -15.4369  -17.7151  -25.8030 C   0  0  0  0  0  0  0  0  0  0  0  0
  -15.2562  -19.1608  -25.9636 C   0  0  0  0  0  0  0  0  0  0  0  0
  -14.5830  -19.6077  -27.1049 C   0  0  0  0  0  0  0  0  0  0  0  0
  -14.3265  -20.9447  -27.2876 C   0  0  0  0  0  0  0  0  0  0  0  0
  -14.7480  -21.8824  -26.3421 C   0  0  0  0  0  0  0  0  0  0  0  0
  -15.4530  -21.4469  -25.2145 C   0  0  0  0  0  0  0  0  0  0  0  0
  -15.7105  -20.0928  -25.0243 C   0  0  0  0  0  0  0  0  0  0  0  0
  -15.4673  -11.4547  -26.2714 F   0  0  0  0  0  0  0  0  0  0  0  0
  -14.3949  -23.3652  -26.5136 C   0  0  0  0  0  0  0  0  0  0  0  0
  -15.5854  -24.2010  -26.0389 C   0  0  0  0  0  0  0  0  0  0  0  0
  -13.1695  -23.7636  -25.6881 C   0  0  0  0  0  0  0  0  0  0  0  0
  -14.0156  -23.6918  -27.9583 C   0  0  0  0  0  0  0  0  0  0  0  0
  -14.0709  -15.1534  -28.3948 H   0  0  0  0  0  0  0  0  0  0  0  0
  -14.2259  -12.6872  -28.1706 H   0  0  0  0  0  0  0  0  0  0  0  0
  -16.5421  -13.1410  -24.5754 H   0  0  0  0  0  0  0  0  0  0  0  0
  -17.5447  -16.3894  -23.1347 H   0  0  0  0  0  0  0  0  0  0  0  0
  -14.2617  -18.8948  -27.8498 H   0  0  0  0  0  0  0  0  0  0  0  0
  -13.7951  -21.2732  -28.1686 H   0  0  0  0  0  0  0  0  0  0  0  0
  -15.7994  -22.1663  -24.4873 H   0  0  0  0  0  0  0  0  0  0  0  0
  -16.2591  -19.7624  -24.1547 H   0  0  0  0  0  0  0  0  0  0  0  0
  -15.3526  -25.2699  -26.1536 H   0  0  0  0  0  0  0  0  0  0  0  0
  -15.7884  -23.9816  -24.9803 H   0  0  0  0  0  0  0  0  0  0  0  0
  -16.4714  -23.9521  -26.6414 H   0  0  0  0  0  0  0  0  0  0  0  0
  -12.9545  -24.8314  -25.8419 H   0  0  0  0  0  0  0  0  0  0  0  0
  -12.3029  -23.1656  -26.0065 H   0  0  0  0  0  0  0  0  0  0  0  0
  -13.3701  -23.5799  -24.6223 H   0  0  0  0  0  0  0  0  0  0  0  0
  -13.7699  -24.7608  -28.0407 H   0  0  0  0  0  0  0  0  0  0  0  0
  -14.8617  -23.4580  -28.6212 H   0  0  0  0  0  0  0  0  0  0  0  0
  -13.1423  -23.0912  -28.2527 H   0  0  0  0  0  0  0  0  0  0  0  0
  1  2  2  0  0  0  0
  1  3  1  0  0  0  0
  2  4  1  0  0  0  0
  2  5  1  0  0  0  0
  3  6  2  0  0  0  0
  4  7  2  0  0  0  0
  4  8  1  0  0  0  0
  5 11  2  0  0  0  0
  6  7  1  0  0  0  0
  6 18  1  0  0  0  0
  8  9  2  0  0  0  0
  8 10  1  0  0  0  0
  9 11  1  0  0  0  0
 11 12  1  0  0  0  0
 12 13  2  0  0  0  0
 12 17  1  0  0  0  0
 13 14  1  0  0  0  0
 14 15  2  0  0  0  0
 15 16  1  0  0  0  0
 15 19  1  0  0  0  0
 16 17  2  0  0  0  0
 19 20  1  0  0  0  0
 19 21  1  0  0  0  0
 19 22  1  0  0  0  0
  1 23  1  0  0  0  0
  3 24  1  0  0  0  0
  7 25  1  0  0  0  0
 10 26  1  0  0  0  0
 13 27  1  0  0  0  0
 14 28  1  0  0  0  0
 16 29  1  0  0  0  0
 17 30  1  0  0  0  0
 20 31  1  0  0  0  0
 20 32  1  0  0  0  0
 20 33  1  0  0  0  0
 21 34  1  0  0  0  0
 21 35  1  0  0  0  0
 21 36  1  0  0  0  0
 22 37  1  0  0  0  0
 22 38  1  0  0  0  0
 22 39  1  0  0  0  0
M  END
> <Name>
3b

> <IC50[nM]>
3.6

$$$$
3b
  -OEChem-05192314333D
 Structure written by MMmdl.
 39 41  0     1  0  0  0  0  0999 V2000
  -14.5843  -14.7116  -27.5536 C   0  0  0  0  0  0  0  0  0  0  0  0
  -15.1563  -15.5168  -26.5725 C   0  0  0  0  0  0  0  0  0  0  0  0
  -14.6839  -13.3308  -27.4341 C   0  0  0  0  0  0  0  0  0  0  0  0
  -15.8704  -14.9642  -25.5050 C   0  0  0  0  0  0  0  0  0  0  0  0
  -14.9849  -16.8888  -26.6806 N   0  0  0  0  0  0  0  0  0  0  0  0
  -15.3785  -12.7815  -26.3579 C   0  0  3  0  0  0  0  0  0  0  0  0
  -15.9898  -13.5830  -25.3915 C   0  0  0  0  0  0  0  0  0  0  0  0
  -16.4951  -15.9110  -24.5008 C   0  0  0  0  0  0  0  0  0  0  0  0
  -16.1292  -17.2016  -24.7265 N   0  0  0  0  0  0  0  0  0  0  0  0
  -17.2749  -15.6059  -23.5994 O   0  0  0  0  0  0  0  0  0  0  0  0
  -15.4369  -17.7151  -25.8030 C   0  0  0  0  0  0  0  0  0  0  0  0
  -15.2562  -19.1608  -25.9636 C   0  0  0  0  0  0  0  0  0  0  0  0
  -14.5830  -19.6077  -27.1049 C   0  0  0  0  0  0  0  0  0  0  0  0
  -14.3265  -20.9447  -27.2876 C   0  0  0  0  0  0  0  0  0  0  0  0
  -14.7480  -21.8824  -26.3421 C   0  0  0  0  0  0  0  0  0  0  0  0
  -15.4530  -21.4469  -25.2145 C   0  0  0  0  0  0  0  0  0  0  0  0
  -15.7105  -20.0928  -25.0243 C   0  0  0  0  0  0  0  0  0  0  0  0
  -15.4673  -11.4547  -26.2714 F   0  0  0  0  0  0  0  0  0  0  0  0
  -14.3949  -23.3652  -26.5136 C   0  0  0  0  0  0  0  0  0  0  0  0
  -15.5854  -24.2010  -26.0389 C   0  0  0  0  0  0  0  0  0  0  0  0
  -13.1695  -23.7636  -25.6881 C   0  0  0  0  0  0  0  0  0  0  0  0
  -14.0156  -23.6918  -27.9583 C   0  0  0  0  0  0  0  0  0  0  0  0
  -14.0709  -15.1534  -28.3948 H   0  0  0  0  0  0  0  0  0  0  0  0
  -14.2259  -12.6872  -28.1706 H   0  0  0  0  0  0  0  0  0  0  0  0
  -14.4529  -12.7631  -25.7639 H   0  0  0  0  0  0  0  0  0  0  0  0
  -16.5421  -13.1410  -24.5754 H   0  0  0  0  0  0  0  0  0  0  0  0
  -14.2617  -18.8948  -27.8498 H   0  0  0  0  0  0  0  0  0  0  0  0
  -13.7951  -21.2732  -28.1686 H   0  0  0  0  0  0  0  0  0  0  0  0
  -15.7994  -22.1663  -24.4873 H   0  0  0  0  0  0  0  0  0  0  0  0
  -16.2591  -19.7624  -24.1547 H   0  0  0  0  0  0  0  0  0  0  0  0
  -15.3526  -25.2699  -26.1536 H   0  0  0  0  0  0  0  0  0  0  0  0
  -15.7884  -23.9816  -24.9803 H   0  0  0  0  0  0  0  0  0  0  0  0
  -16.4714  -23.9521  -26.6414 H   0  0  0  0  0  0  0  0  0  0  0  0
  -12.9545  -24.8314  -25.8419 H   0  0  0  0  0  0  0  0  0  0  0  0
  -12.3029  -23.1656  -26.0065 H   0  0  0  0  0  0  0  0  0  0  0  0
  -13.3701  -23.5799  -24.6223 H   0  0  0  0  0  0  0  0  0  0  0  0
  -13.7699  -24.7608  -28.0407 H   0  0  0  0  0  0  0  0  0  0  0  0
  -14.8617  -23.4580  -28.6212 H   0  0  0  0  0  0  0  0  0  0  0  0
  -13.1423  -23.0912  -28.2527 H   0  0  0  0  0  0  0  0  0  0  0  0
  1  2  1  0  0  0  0
  1  3  2  0  0  0  0
  2  4  1  0  0  0  0
  2  5  2  0  0  0  0
  3  6  1  0  0  0  0
  4  7  2  0  0  0  0
  4  8  1  0  0  0  0
  5 11  1  0  0  0  0
  6  7  1  0  0  0  0
  6 18  1  0  0  0  0
  8  9  1  0  0  0  0
  8 10  2  0  0  0  0
  9 11  2  0  0  0  0
 11 12  1  0  0  0  0
 12 13  2  0  0  0  0
 12 17  1  0  0  0  0
 13 14  1  0  0  0  0
 14 15  2  0  0  0  0
 15 16  1  0  0  0  0
 15 19  1  0  0  0  0
 16 17  2  0  0  0  0
 19 20  1  0  0  0  0
 19 21  1  0  0  0  0
 19 22  1  0  0  0  0
  1 23  1  0  0  0  0
  3 24  1  0  0  0  0
  6 25  1  0  0  0  0
  7 26  1  0  0  0  0
 13 27  1  0  0  0  0
 14 28  1  0  0  0  0
 16 29  1  0  0  0  0
 17 30  1  0  0  0  0
 20 31  1  0  0  0  0
 20 32  1  0  0  0  0
 20 33  1  0  0  0  0
 21 34  1  0  0  0  0
 21 35  1  0  0  0  0
 21 36  1  0  0  0  0
 22 37  1  0  0  0  0
 22 38  1  0  0  0  0
 22 39  1  0  0  0  0
M  END
> <Name>
3b

> <IC50[nM]>
3.6

$$$$
3b
  -OEChem-05192314333D
 Structure written by MMmdl.
 39 41  0     1  0  0  0  0  0999 V2000
  -14.5843  -14.7116  -27.5536 C   0  0  0  0  0  0  0  0  0  0  0  0
  -15.1563  -15.5168  -26.5725 C   0  0  0  0  0  0  0  0  0  0  0  0
  -14.6839  -13.3308  -27.4341 C   0  0  0  0  0  0  0  0  0  0  0  0
  -15.8704  -14.9642  -25.5050 C   0  0  3  0  0  0  0  0  0  0  0  0
  -14.9849  -16.8888  -26.6806 N   0  0  0  0  0  0  0  0  0  0  0  0
  -15.3785  -12.7815  -26.3579 C   0  0  0  0  0  0  0  0  0  0  0  0
  -15.9898  -13.5830  -25.3915 C   0  0  0  0  0  0  0  0  0  0  0  0
  -16.4951  -15.9110  -24.5008 C   0  0  0  0  0  0  0  0  0  0  0  0
  -16.1292  -17.2016  -24.7265 N   0  0  0  0  0  0  0  0  0  0  0  0
  -17.2749  -15.6059  -23.5994 O   0  0  0  0  0  0  0  0  0  0  0  0
  -15.4369  -17.7151  -25.8030 C   0  0  0  0  0  0  0  0  0  0  0  0
  -15.2562  -19.1608  -25.9636 C   0  0  0  0  0  0  0  0  0  0  0  0
  -14.5830  -19.6077  -27.1049 C   0  0  0  0  0  0  0  0  0  0  0  0
  -14.3265  -20.9447  -27.2876 C   0  0  0  0  0  0  0  0  0  0  0  0
  -14.7480  -21.8824  -26.3421 C   0  0  0  0  0  0  0  0  0  0  0  0
  -15.4530  -21.4469  -25.2145 C   0  0  0  0  0  0  0  0  0  0  0  0
  -15.7105  -20.0928  -25.0243 C   0  0  0  0  0  0  0  0  0  0  0  0
  -15.4673  -11.4547  -26.2714 F   0  0  0  0  0  0  0  0  0  0  0  0
  -14.3949  -23.3652  -26.5136 C   0  0  0  0  0  0  0  0  0  0  0  0
  -15.5854  -24.2010  -26.0389 C   0  0  0  0  0  0  0  0  0  0  0  0
  -13.1695  -23.7636  -25.6881 C   0  0  0  0  0  0  0  0  0  0  0  0
  -14.0156  -23.6918  -27.9583 C   0  0  0  0  0  0  0  0  0  0  0  0
  -14.0709  -15.1534  -28.3948 H   0  0  0  0  0  0  0  0  0  0  0  0
  -14.2259  -12.6872  -28.1706 H   0  0  0  0  0  0  0  0  0  0  0  0
  -14.9495  -14.9342  -24.9042 H   0  0  0  0  0  0  0  0  0  0  0  0
  -16.5421  -13.1410  -24.5754 H   0  0  0  0  0  0  0  0  0  0  0  0
  -14.2617  -18.8948  -27.8498 H   0  0  0  0  0  0  0  0  0  0  0  0
  -13.7951  -21.2732  -28.1686 H   0  0  0  0  0  0  0  0  0  0  0  0
  -15.7994  -22.1663  -24.4873 H   0  0  0  0  0  0  0  0  0  0  0  0
  -16.2591  -19.7624  -24.1547 H   0  0  0  0  0  0  0  0  0  0  0  0
  -15.3526  -25.2699  -26.1536 H   0  0  0  0  0  0  0  0  0  0  0  0
  -15.7884  -23.9816  -24.9803 H   0  0  0  0  0  0  0  0  0  0  0  0
  -16.4714  -23.9521  -26.6414 H   0  0  0  0  0  0  0  0  0  0  0  0
  -12.9545  -24.8314  -25.8419 H   0  0  0  0  0  0  0  0  0  0  0  0
  -12.3029  -23.1656  -26.0065 H   0  0  0  0  0  0  0  0  0  0  0  0
  -13.3701  -23.5799  -24.6223 H   0  0  0  0  0  0  0  0  0  0  0  0
  -13.7699  -24.7608  -28.0407 H   0  0  0  0  0  0  0  0  0  0  0  0
  -14.8617  -23.4580  -28.6212 H   0  0  0  0  0  0  0  0  0  0  0  0
  -13.1423  -23.0912  -28.2527 H   0  0  0  0  0  0  0  0  0  0  0  0
  1  2  1  0  0  0  0
  1  3  2  0  0  0  0
  2  4  1  0  0  0  0
  2  5  2  0  0  0  0
  3  6  1  0  0  0  0
  4  7  1  0  0  0  0
  4  8  1  0  0  0  0
  5 11  1  0  0  0  0
  6  7  2  0  0  0  0
  6 18  1  0  0  0  0
  8  9  1  0  0  0  0
  8 10  2  0  0  0  0
  9 11  2  0  0  0  0
 11 12  1  0  0  0  0
 12 13  2  0  0  0  0
 12 17  1  0  0  0  0
 13 14  1  0  0  0  0
 14 15  2  0  0  0  0
 15 16  1  0  0  0  0
 15 19  1  0  0  0  0
 16 17  2  0  0  0  0
 19 20  1  0  0  0  0
 19 21  1  0  0  0  0
 19 22  1  0  0  0  0
  1 23  1  0  0  0  0
  3 24  1  0  0  0  0
  4 25  1  0  0  0  0
  7 26  1  0  0  0  0
 13 27  1  0  0  0  0
 14 28  1  0  0  0  0
 16 29  1  0  0  0  0
 17 30  1  0  0  0  0
 20 31  1  0  0  0  0
 20 32  1  0  0  0  0
 20 33  1  0  0  0  0
 21 34  1  0  0  0  0
 21 35  1  0  0  0  0
 21 36  1  0  0  0  0
 22 37  1  0  0  0  0
 22 38  1  0  0  0  0
 22 39  1  0  0  0  0
M  END
> <Name>
3b

> <IC50[nM]>
3.6

$$$$
3b
  -OEChem-05192314333D
 Structure written by MMmdl.
 39 41  0     0  0  0  0  0  0999 V2000
  -14.5843  -14.7116  -27.5536 C   0  0  0  0  0  0  0  0  0  0  0  0
  -15.1563  -15.5168  -26.5725 C   0  0  0  0  0  0  0  0  0  0  0  0
  -14.6839  -13.3308  -27.4341 C   0  0  0  0  0  0  0  0  0  0  0  0
  -15.8704  -14.9642  -25.5050 C   0  0  0  0  0  0  0  0  0  0  0  0
  -14.9849  -16.8888  -26.6806 N   0  0  0  0  0  0  0  0  0  0  0  0
  -15.3785  -12.7815  -26.3579 C   0  0  0  0  0  0  0  0  0  0  0  0
  -15.9898  -13.5830  -25.3915 C   0  0  0  0  0  0  0  0  0  0  0  0
  -16.4951  -15.9110  -24.5008 C   0  0  0  0  0  0  0  0  0  0  0  0
  -16.1292  -17.2016  -24.7265 N   0  0  0  0  0  0  0  0  0  0  0  0
  -17.2749  -15.6059  -23.5994 O   0  0  0  0  0  0  0  0  0  0  0  0
  -15.4369  -17.7151  -25.8030 C   0  0  0  0  0  0  0  0  0  0  0  0
  -15.2562  -19.1608  -25.9636 C   0  0  0  0  0  0  0  0  0  0  0  0
  -14.5830  -19.6077  -27.1049 C   0  0  0  0  0  0  0  0  0  0  0  0
  -14.3265  -20.9447  -27.2876 C   0  0  0  0  0  0  0  0  0  0  0  0
  -14.7480  -21.8824  -26.3421 C   0  0  0  0  0  0  0  0  0  0  0  0
  -15.4530  -21.4469  -25.2145 C   0  0  0  0  0  0  0  0  0  0  0  0
  -15.7105  -20.0928  -25.0243 C   0  0  0  0  0  0  0  0  0  0  0  0
  -15.4673  -11.4547  -26.2714 F   0  0  0  0  0  0  0  0  0  0  0  0
  -14.3949  -23.3652  -26.5136 C   0  0  0  0  0  0  0  0  0  0  0  0
  -15.5854  -24.2010  -26.0389 C   0  0  0  0  0  0  0  0  0  0  0  0
  -13.1695  -23.7636  -25.6881 C   0  0  0  0  0  0  0  0  0  0  0  0
  -14.0156  -23.6918  -27.9583 C   0  0  0  0  0  0  0  0  0  0  0  0
  -13.5123  -14.9558  -27.5865 H   0  0  0  0  0  0  0  0  0  0  0  0
  -15.0526  -14.9870  -28.5101 H   0  0  0  0  0  0  0  0  0  0  0  0
  -14.2259  -12.6872  -28.1706 H   0  0  0  0  0  0  0  0  0  0  0  0
  -16.5421  -13.1410  -24.5754 H   0  0  0  0  0  0  0  0  0  0  0  0
  -14.2617  -18.8948  -27.8498 H   0  0  0  0  0  0  0  0  0  0  0  0
  -13.7951  -21.2732  -28.1686 H   0  0  0  0  0  0  0  0  0  0  0  0
  -15.7994  -22.1663  -24.4873 H   0  0  0  0  0  0  0  0  0  0  0  0
  -16.2591  -19.7624  -24.1547 H   0  0  0  0  0  0  0  0  0  0  0  0
  -15.3526  -25.2699  -26.1536 H   0  0  0  0  0  0  0  0  0  0  0  0
  -15.7884  -23.9816  -24.9803 H   0  0  0  0  0  0  0  0  0  0  0  0
  -16.4714  -23.9521  -26.6414 H   0  0  0  0  0  0  0  0  0  0  0  0
  -12.9545  -24.8314  -25.8419 H   0  0  0  0  0  0  0  0  0  0  0  0
  -12.3029  -23.1656  -26.0065 H   0  0  0  0  0  0  0  0  0  0  0  0
  -13.3701  -23.5799  -24.6223 H   0  0  0  0  0  0  0  0  0  0  0  0
  -13.7699  -24.7608  -28.0407 H   0  0  0  0  0  0  0  0  0  0  0  0
  -14.8617  -23.4580  -28.6212 H   0  0  0  0  0  0  0  0  0  0  0  0
  -13.1423  -23.0912  -28.2527 H   0  0  0  0  0  0  0  0  0  0  0  0
  1  2  1  0  0  0  0
  1  3  1  0  0  0  0
  2  4  1  0  0  0  0
  2  5  2  0  0  0  0
  3  6  2  0  0  0  0
  4  7  2  0  0  0  0
  4  8  1  0  0  0  0
  5 11  1  0  0  0  0
  6  7  1  0  0  0  0
  6 18  1  0  0  0  0
  8  9  1  0  0  0  0
  8 10  2  0  0  0  0
  9 11  2  0  0  0  0
 11 12  1  0  0  0  0
 12 13  2  0  0  0  0
 12 17  1  0  0  0  0
 13 14  1  0  0  0  0
 14 15  2  0  0  0  0
 15 16  1  0  0  0  0
 15 19  1  0  0  0  0
 16 17  2  0  0  0  0
 19 20  1  0  0  0  0
 19 21  1  0  0  0  0
 19 22  1  0  0  0  0
  1 23  1  0  0  0  0
  1 24  1  0  0  0  0
  3 25  1  0  0  0  0
  7 26  1  0  0  0  0
 13 27  1  0  0  0  0
 14 28  1  0  0  0  0
 16 29  1  0  0  0  0
 17 30  1  0  0  0  0
 20 31  1  0  0  0  0
 20 32  1  0  0  0  0
 20 33  1  0  0  0  0
 21 34  1  0  0  0  0
 21 35  1  0  0  0  0
 21 36  1  0  0  0  0
 22 37  1  0  0  0  0
 22 38  1  0  0  0  0
 22 39  1  0  0  0  0
M  END
> <Name>
3b

> <IC50[nM]>
3.6

$$$$
