8d
  -OEChem-05192314333D
 Structure written by MMmdl.
 45 48  0     0  0  0  0  0  0999 V2000
  -14.5244  -14.7755  -27.5404 C   0  0  0  0  0  0  0  0  0  0  0  0
  -15.1162  -15.5856  -26.5557 C   0  0  0  0  0  0  0  0  0  0  0  0
  -14.6126  -13.3870  -27.4243 C   0  0  0  0  0  0  0  0  0  0  0  0
  -15.8507  -14.9969  -25.5184 C   0  0  0  0  0  0  0  0  0  0  0  0
  -14.9512  -16.9828  -26.6050 N   0  0  0  0  0  0  0  0  0  0  0  0
  -15.3071  -12.8055  -26.3678 C   0  0  0  0  0  0  0  0  0  0  0  0
  -15.9466  -13.6049  -25.4160 C   0  0  0  0  0  0  0  0  0  0  0  0
  -16.5334  -15.9075  -24.5193 C   0  0  0  0  0  0  0  0  0  0  0  0
  -16.1785  -17.2137  -24.6942 N   0  0  0  0  0  0  0  0  0  0  0  0
  -17.3476  -15.5543  -23.6635 O   0  0  0  0  0  0  0  0  0  0  0  0
  -15.4432  -17.7838  -25.7187 C   0  0  0  0  0  0  0  0  0  0  0  0
  -15.2778  -19.2588  -25.8075 C   0  0  0  0  0  0  0  0  0  0  0  0
  -14.7706  -19.8268  -26.9878 C   0  0  0  0  0  0  0  0  0  0  0  0
  -14.6315  -21.2044  -27.1217 C   0  0  0  0  0  0  0  0  0  0  0  0
  -14.9891  -22.0562  -26.0731 C   0  0  0  0  0  0  0  0  0  0  0  0
  -15.4751  -21.4979  -24.8861 C   0  0  0  0  0  0  0  0  0  0  0  0
  -15.6240  -20.1168  -24.7536 C   0  0  0  0  0  0  0  0  0  0  0  0
  -13.7517  -15.3550  -28.7136 C   0  0  0  0  0  0  0  0  0  0  0  0
  -15.3512  -11.4588  -26.2838 F   0  0  0  0  0  0  0  0  0  0  0  0
  -14.9424  -23.5841  -26.2418 C   0  0  0  0  0  0  0  0  0  0  0  0
  -13.6275  -24.1410  -26.8461 C   0  0  0  0  0  0  0  0  0  0  0  0
  -13.6510  -25.6466  -27.2708 C   0  0  0  0  0  0  0  0  0  0  0  0
  -14.9478  -25.9976  -27.9976 N   0  0  0  0  0  0  0  0  0  0  0  0
  -16.1519  -25.5972  -27.1498 C   0  0  0  0  0  0  0  0  0  0  0  0
  -16.1496  -24.0686  -27.0565 C   0  0  0  0  0  0  0  0  0  0  0  0
  -14.1370  -12.7577  -28.1620 H   0  0  0  0  0  0  0  0  0  0  0  0
  -16.5079  -13.1535  -24.6113 H   0  0  0  0  0  0  0  0  0  0  0  0
  -16.4927  -17.8451  -23.9852 H   0  0  0  0  0  0  0  0  0  0  0  0
  -14.4836  -19.1826  -27.8058 H   0  0  0  0  0  0  0  0  0  0  0  0
  -14.2449  -21.6181  -28.0414 H   0  0  0  0  0  0  0  0  0  0  0  0
  -15.7384  -22.1440  -24.0617 H   0  0  0  0  0  0  0  0  0  0  0  0
  -16.0089  -19.7054  -23.8322 H   0  0  0  0  0  0  0  0  0  0  0  0
  -14.4357  -15.5168  -29.5598 H   0  0  0  0  0  0  0  0  0  0  0  0
  -12.9585  -14.6538  -29.0123 H   0  0  0  0  0  0  0  0  0  0  0  0
  -13.3012  -16.3140  -28.4180 H   0  0  0  0  0  0  0  0  0  0  0  0
  -15.0388  -24.0198  -25.2364 H   0  0  0  0  0  0  0  0  0  0  0  0
  -13.3876  -23.5435  -27.7380 H   0  0  0  0  0  0  0  0  0  0  0  0
  -12.8328  -24.0154  -26.0960 H   0  0  0  0  0  0  0  0  0  0  0  0
  -12.8005  -25.8435  -27.9400 H   0  0  0  0  0  0  0  0  0  0  0  0
  -13.5630  -26.2740  -26.3716 H   0  0  0  0  0  0  0  0  0  0  0  0
  -14.9805  -25.5090  -28.8695 H   0  0  0  0  0  0  0  0  0  0  0  0
  -17.0807  -25.9446  -27.6259 H   0  0  0  0  0  0  0  0  0  0  0  0
  -16.0684  -26.0366  -26.1448 H   0  0  0  0  0  0  0  0  0  0  0  0
  -17.0757  -23.7340  -26.5661 H   0  0  0  0  0  0  0  0  0  0  0  0
  -16.0971  -23.6437  -28.0698 H   0  0  0  0  0  0  0  0  0  0  0  0
  1  2  2  0  0  0  0
  1  3  1  0  0  0  0
  1 18  1  0  0  0  0
  2  4  1  0  0  0  0
  2  5  1  0  0  0  0
  3  6  2  0  0  0  0
  4  7  2  0  0  0  0
  4  8  1  0  0  0  0
  5 11  2  0  0  0  0
  6  7  1  0  0  0  0
  6 19  1  0  0  0  0
  8  9  1  0  0  0  0
  8 10  2  0  0  0  0
  9 11  1  0  0  0  0
 11 12  1  0  0  0  0
 12 13  2  0  0  0  0
 12 17  1  0  0  0  0
 13 14  1  0  0  0  0
 14 15  2  0  0  0  0
 15 16  1  0  0  0  0
 15 20  1  0  0  0  0
 16 17  2  0  0  0  0
 20 21  1  0  0  0  0
 20 25  1  0  0  0  0
 21 22  1  0  0  0  0
 22 23  1  0  0  0  0
 23 24  1  0  0  0  0
 24 25  1  0  0  0  0
  3 26  1  0  0  0  0
  7 27  1  0  0  0  0
  9 28  1  0  0  0  0
 13 29  1  0  0  0  0
 14 30  1  0  0  0  0
 16 31  1  0  0  0  0
 17 32  1  0  0  0  0
 18 33  1  0  0  0  0
 18 34  1  0  0  0  0
 18 35  1  0  0  0  0
 20 36  1  0  0  0  0
 21 37  1  0  0  0  0
 21 38  1  0  0  0  0
 22 39  1  0  0  0  0
 22 40  1  0  0  0  0
 23 41  1  0  0  0  0
 24 42  1  0  0  0  0
 24 43  1  0  0  0  0
 25 44  1  0  0  0  0
 25 45  1  0  0  0  0
M  END
> <Name>
8d

> <IC50[nM]>
0.7

$$$$
8d
  -OEChem-05192314333D
 Structure written by MMmdl.
 45 48  0     0  0  0  0  0  0999 V2000
  -14.5244  -14.7755  -27.5404 C   0  0  0  0  0  0  0  0  0  0  0  0
  -15.1162  -15.5856  -26.5557 C   0  0  0  0  0  0  0  0  0  0  0  0
  -14.6126  -13.3870  -27.4243 C   0  0  0  0  0  0  0  0  0  0  0  0
  -15.8507  -14.9969  -25.5184 C   0  0  0  0  0  0  0  0  0  0  0  0
  -14.9512  -16.9828  -26.6050 N   0  0  0  0  0  0  0  0  0  0  0  0
  -15.3071  -12.8055  -26.3678 C   0  0  0  0  0  0  0  0  0  0  0  0
  -15.9466  -13.6049  -25.4160 C   0  0  0  0  0  0  0  0  0  0  0  0
  -16.5334  -15.9075  -24.5193 C   0  0  0  0  0  0  0  0  0  0  0  0
  -16.1785  -17.2137  -24.6942 N   0  0  0  0  0  0  0  0  0  0  0  0
  -17.3476  -15.5543  -23.6635 O   0  0  0  0  0  0  0  0  0  0  0  0
  -15.4432  -17.7838  -25.7187 C   0  0  0  0  0  0  0  0  0  0  0  0
  -15.2778  -19.2588  -25.8075 C   0  0  0  0  0  0  0  0  0  0  0  0
  -14.7706  -19.8268  -26.9878 C   0  0  0  0  0  0  0  0  0  0  0  0
  -14.6315  -21.2044  -27.1217 C   0  0  0  0  0  0  0  0  0  0  0  0
  -14.9891  -22.0562  -26.0731 C   0  0  0  0  0  0  0  0  0  0  0  0
  -15.4751  -21.4979  -24.8861 C   0  0  0  0  0  0  0  0  0  0  0  0
  -15.6240  -20.1168  -24.7536 C   0  0  0  0  0  0  0  0  0  0  0  0
  -13.7517  -15.3550  -28.7136 C   0  0  0  0  0  0  0  0  0  0  0  0
  -15.3512  -11.4588  -26.2838 F   0  0  0  0  0  0  0  0  0  0  0  0
  -14.9424  -23.5841  -26.2418 C   0  0  0  0  0  0  0  0  0  0  0  0
  -13.6275  -24.1410  -26.8461 C   0  0  0  0  0  0  0  0  0  0  0  0
  -13.6510  -25.6466  -27.2708 C   0  0  0  0  0  0  0  0  0  0  0  0
  -14.9478  -25.9976  -27.9976 N   0  0  0  0  0  0  0  0  0  0  0  0
  -16.1519  -25.5972  -27.1498 C   0  0  0  0  0  0  0  0  0  0  0  0
  -16.1496  -24.0686  -27.0565 C   0  0  0  0  0  0  0  0  0  0  0  0
  -14.1370  -12.7577  -28.1620 H   0  0  0  0  0  0  0  0  0  0  0  0
  -14.4282  -17.3740  -27.3622 H   0  0  0  0  0  0  0  0  0  0  0  0
  -16.5079  -13.1535  -24.6113 H   0  0  0  0  0  0  0  0  0  0  0  0
  -14.4836  -19.1826  -27.8058 H   0  0  0  0  0  0  0  0  0  0  0  0
  -14.2449  -21.6181  -28.0414 H   0  0  0  0  0  0  0  0  0  0  0  0
  -15.7384  -22.1440  -24.0617 H   0  0  0  0  0  0  0  0  0  0  0  0
  -16.0089  -19.7054  -23.8322 H   0  0  0  0  0  0  0  0  0  0  0  0
  -14.4357  -15.5168  -29.5598 H   0  0  0  0  0  0  0  0  0  0  0  0
  -12.9585  -14.6538  -29.0123 H   0  0  0  0  0  0  0  0  0  0  0  0
  -13.3012  -16.3140  -28.4180 H   0  0  0  0  0  0  0  0  0  0  0  0
  -15.0388  -24.0198  -25.2364 H   0  0  0  0  0  0  0  0  0  0  0  0
  -13.3876  -23.5435  -27.7380 H   0  0  0  0  0  0  0  0  0  0  0  0
  -12.8328  -24.0154  -26.0960 H   0  0  0  0  0  0  0  0  0  0  0  0
  -12.8005  -25.8435  -27.9400 H   0  0  0  0  0  0  0  0  0  0  0  0
  -13.5630  -26.2740  -26.3716 H   0  0  0  0  0  0  0  0  0  0  0  0
  -14.9805  -25.5090  -28.8695 H   0  0  0  0  0  0  0  0  0  0  0  0
  -17.0807  -25.9446  -27.6259 H   0  0  0  0  0  0  0  0  0  0  0  0
  -16.0684  -26.0366  -26.1448 H   0  0  0  0  0  0  0  0  0  0  0  0
  -17.0757  -23.7340  -26.5661 H   0  0  0  0  0  0  0  0  0  0  0  0
  -16.0971  -23.6437  -28.0698 H   0  0  0  0  0  0  0  0  0  0  0  0
  1  2  2  0  0  0  0
  1  3  1  0  0  0  0
  1 18  1  0  0  0  0
  2  4  1  0  0  0  0
  2  5  1  0  0  0  0
  3  6  2  0  0  0  0
  4  7  2  0  0  0  0
  4  8  1  0  0  0  0
  5 11  1  0  0  0  0
  6  7  1  0  0  0  0
  6 19  1  0  0  0  0
  8  9  1  0  0  0  0
  8 10  2  0  0  0  0
  9 11  2  0  0  0  0
 11 12  1  0  0  0  0
 12 13  2  0  0  0  0
 12 17  1  0  0  0  0
 13 14  1  0  0  0  0
 14 15  2  0  0  0  0
 15 16  1  0  0  0  0
 15 20  1  0  0  0  0
 16 17  2  0  0  0  0
 20 21  1  0  0  0  0
 20 25  1  0  0  0  0
 21 22  1  0  0  0  0
 22 23  1  0  0  0  0
 23 24  1  0  0  0  0
 24 25  1  0  0  0  0
  3 26  1  0  0  0  0
  5 27  1  0  0  0  0
  7 28  1  0  0  0  0
 13 29  1  0  0  0  0
 14 30  1  0  0  0  0
 16 31  1  0  0  0  0
 17 32  1  0  0  0  0
 18 33  1  0  0  0  0
 18 34  1  0  0  0  0
 18 35  1  0  0  0  0
 20 36  1  0  0  0  0
 21 37  1  0  0  0  0
 21 38  1  0  0  0  0
 22 39  1  0  0  0  0
 22 40  1  0  0  0  0
 23 41  1  0  0  0  0
 24 42  1  0  0  0  0
 24 43  1  0  0  0  0
 25 44  1  0  0  0  0
 25 45  1  0  0  0  0
M  END
> <Name>
8d

> <IC50[nM]>
0.7

$$$$
8d
  -OEChem-05192314333D
 Structure written by MMmdl.
 45 48  0     0  0  0  0  0  0999 V2000
  -14.5244  -14.7755  -27.5404 C   0  0  0  0  0  0  0  0  0  0  0  0
  -15.1162  -15.5856  -26.5557 C   0  0  0  0  0  0  0  0  0  0  0  0
  -14.6126  -13.3870  -27.4243 C   0  0  0  0  0  0  0  0  0  0  0  0
  -15.8507  -14.9969  -25.5184 C   0  0  0  0  0  0  0  0  0  0  0  0
  -14.9512  -16.9828  -26.6050 N   0  0  0  0  0  0  0  0  0  0  0  0
  -15.3071  -12.8055  -26.3678 C   0  0  0  0  0  0  0  0  0  0  0  0
  -15.9466  -13.6049  -25.4160 C   0  0  0  0  0  0  0  0  0  0  0  0
  -16.5334  -15.9075  -24.5193 C   0  0  0  0  0  0  0  0  0  0  0  0
  -16.1785  -17.2137  -24.6942 N   0  0  0  0  0  0  0  0  0  0  0  0
  -17.3476  -15.5543  -23.6635 O   0  0  0  0  0  0  0  0  0  0  0  0
  -15.4432  -17.7838  -25.7187 C   0  0  0  0  0  0  0  0  0  0  0  0
  -15.2778  -19.2588  -25.8075 C   0  0  0  0  0  0  0  0  0  0  0  0
  -14.7706  -19.8268  -26.9878 C   0  0  0  0  0  0  0  0  0  0  0  0
  -14.6315  -21.2044  -27.1217 C   0  0  0  0  0  0  0  0  0  0  0  0
  -14.9891  -22.0562  -26.0731 C   0  0  0  0  0  0  0  0  0  0  0  0
  -15.4751  -21.4979  -24.8861 C   0  0  0  0  0  0  0  0  0  0  0  0
  -15.6240  -20.1168  -24.7536 C   0  0  0  0  0  0  0  0  0  0  0  0
  -13.7517  -15.3550  -28.7136 C   0  0  0  0  0  0  0  0  0  0  0  0
  -15.3512  -11.4588  -26.2838 F   0  0  0  0  0  0  0  0  0  0  0  0
  -14.9424  -23.5841  -26.2418 C   0  0  0  0  0  0  0  0  0  0  0  0
  -13.6275  -24.1410  -26.8461 C   0  0  0  0  0  0  0  0  0  0  0  0
  -13.6510  -25.6466  -27.2708 C   0  0  0  0  0  0  0  0  0  0  0  0
  -14.9478  -25.9976  -27.9976 N   0  0  0  0  0  0  0  0  0  0  0  0
  -16.1519  -25.5972  -27.1498 C   0  0  0  0  0  0  0  0  0  0  0  0
  -16.1496  -24.0686  -27.0565 C   0  0  0  0  0  0  0  0  0  0  0  0
  -14.1370  -12.7577  -28.1620 H   0  0  0  0  0  0  0  0  0  0  0  0
  -16.5079  -13.1535  -24.6113 H   0  0  0  0  0  0  0  0  0  0  0  0
  -17.6558  -16.3154  -23.1857 H   0  0  0  0  0  0  0  0  0  0  0  0
  -14.4836  -19.1826  -27.8058 H   0  0  0  0  0  0  0  0  0  0  0  0
  -14.2449  -21.6181  -28.0414 H   0  0  0  0  0  0  0  0  0  0  0  0
  -15.7384  -22.1440  -24.0617 H   0  0  0  0  0  0  0  0  0  0  0  0
  -16.0089  -19.7054  -23.8322 H   0  0  0  0  0  0  0  0  0  0  0  0
  -14.4357  -15.5168  -29.5598 H   0  0  0  0  0  0  0  0  0  0  0  0
  -12.9585  -14.6538  -29.0123 H   0  0  0  0  0  0  0  0  0  0  0  0
  -13.3012  -16.3140  -28.4180 H   0  0  0  0  0  0  0  0  0  0  0  0
  -15.0388  -24.0198  -25.2364 H   0  0  0  0  0  0  0  0  0  0  0  0
  -13.3876  -23.5435  -27.7380 H   0  0  0  0  0  0  0  0  0  0  0  0
  -12.8328  -24.0154  -26.0960 H   0  0  0  0  0  0  0  0  0  0  0  0
  -12.8005  -25.8435  -27.9400 H   0  0  0  0  0  0  0  0  0  0  0  0
  -13.5630  -26.2740  -26.3716 H   0  0  0  0  0  0  0  0  0  0  0  0
  -14.9805  -25.5090  -28.8695 H   0  0  0  0  0  0  0  0  0  0  0  0
  -17.0807  -25.9446  -27.6259 H   0  0  0  0  0  0  0  0  0  0  0  0
  -16.0684  -26.0366  -26.1448 H   0  0  0  0  0  0  0  0  0  0  0  0
  -17.0757  -23.7340  -26.5661 H   0  0  0  0  0  0  0  0  0  0  0  0
  -16.0971  -23.6437  -28.0698 H   0  0  0  0  0  0  0  0  0  0  0  0
  1  2  2  0  0  0  0
  1  3  1  0  0  0  0
  1 18  1  0  0  0  0
  2  4  1  0  0  0  0
  2  5  1  0  0  0  0
  3  6  2  0  0  0  0
  4  7  2  0  0  0  0
  4  8  1  0  0  0  0
  5 11  2  0  0  0  0
  6  7  1  0  0  0  0
  6 19  1  0  0  0  0
  8  9  2  0  0  0  0
  8 10  1  0  0  0  0
  9 11  1  0  0  0  0
 11 12  1  0  0  0  0
 12 13  2  0  0  0  0
 12 17  1  0  0  0  0
 13 14  1  0  0  0  0
 14 15  2  0  0  0  0
 15 16  1  0  0  0  0
 15 20  1  0  0  0  0
 16 17  2  0  0  0  0
 20 21  1  0  0  0  0
 20 25  1  0  0  0  0
 21 22  1  0  0  0  0
 22 23  1  0  0  0  0
 23 24  1  0  0  0  0
 24 25  1  0  0  0  0
  3 26  1  0  0  0  0
  7 27  1  0  0  0  0
 10 28  1  0  0  0  0
 13 29  1  0  0  0  0
 14 30  1  0  0  0  0
 16 31  1  0  0  0  0
 17 32  1  0  0  0  0
 18 33  1  0  0  0  0
 18 34  1  0  0  0  0
 18 35  1  0  0  0  0
 20 36  1  0  0  0  0
 21 37  1  0  0  0  0
 21 38  1  0  0  0  0
 22 39  1  0  0  0  0
 22 40  1  0  0  0  0
 23 41  1  0  0  0  0
 24 42  1  0  0  0  0
 24 43  1  0  0  0  0
 25 44  1  0  0  0  0
 25 45  1  0  0  0  0
M  END
> <Name>
8d

> <IC50[nM]>
0.7

$$$$
8d
  -OEChem-05192314333D
 Structure written by MMmdl.
 45 48  0     1  0  0  0  0  0999 V2000
  -14.5244  -14.7755  -27.5404 C   0  0  0  0  0  0  0  0  0  0  0  0
  -15.1162  -15.5856  -26.5557 C   0  0  0  0  0  0  0  0  0  0  0  0
  -14.6126  -13.3870  -27.4243 C   0  0  0  0  0  0  0  0  0  0  0  0
  -15.8507  -14.9969  -25.5184 C   0  0  0  0  0  0  0  0  0  0  0  0
  -14.9512  -16.9828  -26.6050 N   0  0  0  0  0  0  0  0  0  0  0  0
  -15.3071  -12.8055  -26.3678 C   0  0  3  0  0  0  0  0  0  0  0  0
  -15.9466  -13.6049  -25.4160 C   0  0  0  0  0  0  0  0  0  0  0  0
  -16.5334  -15.9075  -24.5193 C   0  0  0  0  0  0  0  0  0  0  0  0
  -16.1785  -17.2137  -24.6942 N   0  0  0  0  0  0  0  0  0  0  0  0
  -17.3476  -15.5543  -23.6635 O   0  0  0  0  0  0  0  0  0  0  0  0
  -15.4432  -17.7838  -25.7187 C   0  0  0  0  0  0  0  0  0  0  0  0
  -15.2778  -19.2588  -25.8075 C   0  0  0  0  0  0  0  0  0  0  0  0
  -14.7706  -19.8268  -26.9878 C   0  0  0  0  0  0  0  0  0  0  0  0
  -14.6315  -21.2044  -27.1217 C   0  0  0  0  0  0  0  0  0  0  0  0
  -14.9891  -22.0562  -26.0731 C   0  0  0  0  0  0  0  0  0  0  0  0
  -15.4751  -21.4979  -24.8861 C   0  0  0  0  0  0  0  0  0  0  0  0
  -15.6240  -20.1168  -24.7536 C   0  0  0  0  0  0  0  0  0  0  0  0
  -13.7517  -15.3550  -28.7136 C   0  0  0  0  0  0  0  0  0  0  0  0
  -15.3512  -11.4588  -26.2838 F   0  0  0  0  0  0  0  0  0  0  0  0
  -14.9424  -23.5841  -26.2418 C   0  0  0  0  0  0  0  0  0  0  0  0
  -13.6275  -24.1410  -26.8461 C   0  0  0  0  0  0  0  0  0  0  0  0
  -13.6510  -25.6466  -27.2708 C   0  0  0  0  0  0  0  0  0  0  0  0
  -14.9478  -25.9976  -27.9976 N   0  0  0  0  0  0  0  0  0  0  0  0
  -16.1519  -25.5972  -27.1498 C   0  0  0  0  0  0  0  0  0  0  0  0
  -16.1496  -24.0686  -27.0565 C   0  0  0  0  0  0  0  0  0  0  0  0
  -14.1370  -12.7577  -28.1620 H   0  0  0  0  0  0  0  0  0  0  0  0
  -14.3904  -12.8140  -25.7598 H   0  0  0  0  0  0  0  0  0  0  0  0
  -16.5079  -13.1535  -24.6113 H   0  0  0  0  0  0  0  0  0  0  0  0
  -14.4836  -19.1826  -27.8058 H   0  0  0  0  0  0  0  0  0  0  0  0
  -14.2449  -21.6181  -28.0414 H   0  0  0  0  0  0  0  0  0  0  0  0
  -15.7384  -22.1440  -24.0617 H   0  0  0  0  0  0  0  0  0  0  0  0
  -16.0089  -19.7054  -23.8322 H   0  0  0  0  0  0  0  0  0  0  0  0
  -13.3822  -14.5372  -29.3498 H   0  0  0  0  0  0  0  0  0  0  0  0
  -12.8997  -15.9407  -28.3379 H   0  0  0  0  0  0  0  0  0  0  0  0
  -14.4137  -16.0070  -29.3024 H   0  0  0  0  0  0  0  0  0  0  0  0
  -15.0388  -24.0198  -25.2364 H   0  0  0  0  0  0  0  0  0  0  0  0
  -13.3876  -23.5435  -27.7380 H   0  0  0  0  0  0  0  0  0  0  0  0
  -12.8328  -24.0154  -26.0960 H   0  0  0  0  0  0  0  0  0  0  0  0
  -12.8005  -25.8435  -27.9400 H   0  0  0  0  0  0  0  0  0  0  0  0
  -13.5630  -26.2740  -26.3716 H   0  0  0  0  0  0  0  0  0  0  0  0
  -14.9805  -25.5090  -28.8695 H   0  0  0  0  0  0  0  0  0  0  0  0
  -17.0807  -25.9446  -27.6259 H   0  0  0  0  0  0  0  0  0  0  0  0
  -16.0684  -26.0366  -26.1448 H   0  0  0  0  0  0  0  0  0  0  0  0
  -17.0757  -23.7340  -26.5661 H   0  0  0  0  0  0  0  0  0  0  0  0
  -16.0971  -23.6437  -28.0698 H   0  0  0  0  0  0  0  0  0  0  0  0
  1  2  1  0  0  0  0
  1  3  2  0  0  0  0
  1 18  1  0  0  0  0
  2  4  1  0  0  0  0
  2  5  2  0  0  0  0
  3  6  1  0  0  0  0
  4  7  2  0  0  0  0
  4  8  1  0  0  0  0
  5 11  1  0  0  0  0
  6  7  1  0  0  0  0
  6 19  1  0  0  0  0
  8  9  1  0  0  0  0
  8 10  2  0  0  0  0
  9 11  2  0  0  0  0
 11 12  1  0  0  0  0
 12 13  2  0  0  0  0
 12 17  1  0  0  0  0
 13 14  1  0  0  0  0
 14 15  2  0  0  0  0
 15 16  1  0  0  0  0
 15 20  1  0  0  0  0
 16 17  2  0  0  0  0
 20 21  1  0  0  0  0
 20 25  1  0  0  0  0
 21 22  1  0  0  0  0
 22 23  1  0  0  0  0
 23 24  1  0  0  0  0
 24 25  1  0  0  0  0
  3 26  1  0  0  0  0
  6 27  1  0  0  0  0
  7 28  1  0  0  0  0
 13 29  1  0  0  0  0
 14 30  1  0  0  0  0
 16 31  1  0  0  0  0
 17 32  1  0  0  0  0
 18 33  1  0  0  0  0
 18 34  1  0  0  0  0
 18 35  1  0  0  0  0
 20 36  1  0  0  0  0
 21 37  1  0  0  0  0
 21 38  1  0  0  0  0
 22 39  1  0  0  0  0
 22 40  1  0  0  0  0
 23 41  1  0  0  0  0
 24 42  1  0  0  0  0
 24 43  1  0  0  0  0
 25 44  1  0  0  0  0
 25 45  1  0  0  0  0
M  END
> <Name>
8d

> <IC50[nM]>
0.7

$$$$
8d
  -OEChem-05192314333D
 Structure written by MMmdl.
 45 48  0     1  0  0  0  0  0999 V2000
  -14.5244  -14.7755  -27.5404 C   0  0  3  0  0  0  0  0  0  0  0  0
  -15.1162  -15.5856  -26.5557 C   0  0  0  0  0  0  0  0  0  0  0  0
  -14.6126  -13.3870  -27.4243 C   0  0  0  0  0  0  0  0  0  0  0  0
  -15.8507  -14.9969  -25.5184 C   0  0  0  0  0  0  0  0  0  0  0  0
  -14.9512  -16.9828  -26.6050 N   0  0  0  0  0  0  0  0  0  0  0  0
  -15.3071  -12.8055  -26.3678 C   0  0  0  0  0  0  0  0  0  0  0  0
  -15.9466  -13.6049  -25.4160 C   0  0  0  0  0  0  0  0  0  0  0  0
  -16.5334  -15.9075  -24.5193 C   0  0  0  0  0  0  0  0  0  0  0  0
  -16.1785  -17.2137  -24.6942 N   0  0  0  0  0  0  0  0  0  0  0  0
  -17.3476  -15.5543  -23.6635 O   0  0  0  0  0  0  0  0  0  0  0  0
  -15.4432  -17.7838  -25.7187 C   0  0  0  0  0  0  0  0  0  0  0  0
  -15.2778  -19.2588  -25.8075 C   0  0  0  0  0  0  0  0  0  0  0  0
  -14.7706  -19.8268  -26.9878 C   0  0  0  0  0  0  0  0  0  0  0  0
  -14.6315  -21.2044  -27.1217 C   0  0  0  0  0  0  0  0  0  0  0  0
  -14.9891  -22.0562  -26.0731 C   0  0  0  0  0  0  0  0  0  0  0  0
  -15.4751  -21.4979  -24.8861 C   0  0  0  0  0  0  0  0  0  0  0  0
  -15.6240  -20.1168  -24.7536 C   0  0  0  0  0  0  0  0  0  0  0  0
  -13.7517  -15.3550  -28.7136 C   0  0  0  0  0  0  0  0  0  0  0  0
  -15.3512  -11.4588  -26.2838 F   0  0  0  0  0  0  0  0  0  0  0  0
  -14.9424  -23.5841  -26.2418 C   0  0  0  0  0  0  0  0  0  0  0  0
  -13.6275  -24.1410  -26.8461 C   0  0  0  0  0  0  0  0  0  0  0  0
  -13.6510  -25.6466  -27.2708 C   0  0  0  0  0  0  0  0  0  0  0  0
  -14.9478  -25.9976  -27.9976 N   0  0  0  0  0  0  0  0  0  0  0  0
  -16.1519  -25.5972  -27.1498 C   0  0  0  0  0  0  0  0  0  0  0  0
  -16.1496  -24.0686  -27.0565 C   0  0  0  0  0  0  0  0  0  0  0  0
  -15.4530  -14.7956  -28.1297 H   0  0  0  0  0  0  0  0  0  0  0  0
  -14.1370  -12.7577  -28.1620 H   0  0  0  0  0  0  0  0  0  0  0  0
  -16.5079  -13.1535  -24.6113 H   0  0  0  0  0  0  0  0  0  0  0  0
  -14.4836  -19.1826  -27.8058 H   0  0  0  0  0  0  0  0  0  0  0  0
  -14.2449  -21.6181  -28.0414 H   0  0  0  0  0  0  0  0  0  0  0  0
  -15.7384  -22.1440  -24.0617 H   0  0  0  0  0  0  0  0  0  0  0  0
  -16.0089  -19.7054  -23.8322 H   0  0  0  0  0  0  0  0  0  0  0  0
  -13.3822  -14.5372  -29.3498 H   0  0  0  0  0  0  0  0  0  0  0  0
  -12.8997  -15.9407  -28.3379 H   0  0  0  0  0  0  0  0  0  0  0  0
  -14.4137  -16.0070  -29.3024 H   0  0  0  0  0  0  0  0  0  0  0  0
  -15.0388  -24.0198  -25.2364 H   0  0  0  0  0  0  0  0  0  0  0  0
  -13.3876  -23.5435  -27.7380 H   0  0  0  0  0  0  0  0  0  0  0  0
  -12.8328  -24.0154  -26.0960 H   0  0  0  0  0  0  0  0  0  0  0  0
  -12.8005  -25.8435  -27.9400 H   0  0  0  0  0  0  0  0  0  0  0  0
  -13.5630  -26.2740  -26.3716 H   0  0  0  0  0  0  0  0  0  0  0  0
  -14.9805  -25.5090  -28.8695 H   0  0  0  0  0  0  0  0  0  0  0  0
  -17.0807  -25.9446  -27.6259 H   0  0  0  0  0  0  0  0  0  0  0  0
  -16.0684  -26.0366  -26.1448 H   0  0  0  0  0  0  0  0  0  0  0  0
  -17.0757  -23.7340  -26.5661 H   0  0  0  0  0  0  0  0  0  0  0  0
  -16.0971  -23.6437  -28.0698 H   0  0  0  0  0  0  0  0  0  0  0  0
  1  2  1  0  0  0  0
  1  3  1  0  0  0  0
  1 18  1  0  0  0  0
  2  4  1  0  0  0  0
  2  5  2  0  0  0  0
  3  6  2  0  0  0  0
  4  7  2  0  0  0  0
  4  8  1  0  0  0  0
  5 11  1  0  0  0  0
  6  7  1  0  0  0  0
  6 19  1  0  0  0  0
  8  9  1  0  0  0  0
  8 10  2  0  0  0  0
  9 11  2  0  0  0  0
 11 12  1  0  0  0  0
 12 13  2  0  0  0  0
 12 17  1  0  0  0  0
 13 14  1  0  0  0  0
 14 15  2  0  0  0  0
 15 16  1  0  0  0  0
 15 20  1  0  0  0  0
 16 17  2  0  0  0  0
 20 21  1  0  0  0  0
 20 25  1  0  0  0  0
 21 22  1  0  0  0  0
 22 23  1  0  0  0  0
 23 24  1  0  0  0  0
 24 25  1  0  0  0  0
  1 26  1  0  0  0  0
  3 27  1  0  0  0  0
  7 28  1  0  0  0  0
 13 29  1  0  0  0  0
 14 30  1  0  0  0  0
 16 31  1  0  0  0  0
 17 32  1  0  0  0  0
 18 33  1  0  0  0  0
 18 34  1  0  0  0  0
 18 35  1  0  0  0  0
 20 36  1  0  0  0  0
 21 37  1  0  0  0  0
 21 38  1  0  0  0  0
 22 39  1  0  0  0  0
 22 40  1  0  0  0  0
 23 41  1  0  0  0  0
 24 42  1  0  0  0  0
 24 43  1  0  0  0  0
 25 44  1  0  0  0  0
 25 45  1  0  0  0  0
M  END
> <Name>
8d

> <IC50[nM]>
0.7

$$$$
8d
  -OEChem-05192314333D
 Structure written by MMmdl.
 45 48  0     1  0  0  0  0  0999 V2000
  -14.5244  -14.7755  -27.5404 C   0  0  0  0  0  0  0  0  0  0  0  0
  -15.1162  -15.5856  -26.5557 C   0  0  0  0  0  0  0  0  0  0  0  0
  -14.6126  -13.3870  -27.4243 C   0  0  0  0  0  0  0  0  0  0  0  0
  -15.8507  -14.9969  -25.5184 C   0  0  3  0  0  0  0  0  0  0  0  0
  -14.9512  -16.9828  -26.6050 N   0  0  0  0  0  0  0  0  0  0  0  0
  -15.3071  -12.8055  -26.3678 C   0  0  0  0  0  0  0  0  0  0  0  0
  -15.9466  -13.6049  -25.4160 C   0  0  0  0  0  0  0  0  0  0  0  0
  -16.5334  -15.9075  -24.5193 C   0  0  0  0  0  0  0  0  0  0  0  0
  -16.1785  -17.2137  -24.6942 N   0  0  0  0  0  0  0  0  0  0  0  0
  -17.3476  -15.5543  -23.6635 O   0  0  0  0  0  0  0  0  0  0  0  0
  -15.4432  -17.7838  -25.7187 C   0  0  0  0  0  0  0  0  0  0  0  0
  -15.2778  -19.2588  -25.8075 C   0  0  0  0  0  0  0  0  0  0  0  0
  -14.7706  -19.8268  -26.9878 C   0  0  0  0  0  0  0  0  0  0  0  0
  -14.6315  -21.2044  -27.1217 C   0  0  0  0  0  0  0  0  0  0  0  0
  -14.9891  -22.0562  -26.0731 C   0  0  0  0  0  0  0  0  0  0  0  0
  -15.4751  -21.4979  -24.8861 C   0  0  0  0  0  0  0  0  0  0  0  0
  -15.6240  -20.1168  -24.7536 C   0  0  0  0  0  0  0  0  0  0  0  0
  -13.7517  -15.3550  -28.7136 C   0  0  0  0  0  0  0  0  0  0  0  0
  -15.3512  -11.4588  -26.2838 F   0  0  0  0  0  0  0  0  0  0  0  0
  -14.9424  -23.5841  -26.2418 C   0  0  0  0  0  0  0  0  0  0  0  0
  -13.6275  -24.1410  -26.8461 C   0  0  0  0  0  0  0  0  0  0  0  0
  -13.6510  -25.6466  -27.2708 C   0  0  0  0  0  0  0  0  0  0  0  0
  -14.9478  -25.9976  -27.9976 N   0  0  0  0  0  0  0  0  0  0  0  0
  -16.1519  -25.5972  -27.1498 C   0  0  0  0  0  0  0  0  0  0  0  0
  -16.1496  -24.0686  -27.0565 C   0  0  0  0  0  0  0  0  0  0  0  0
  -14.1370  -12.7577  -28.1620 H   0  0  0  0  0  0  0  0  0  0  0  0
  -14.9491  -14.9814  -24.8885 H   0  0  0  0  0  0  0  0  0  0  0  0
  -16.5079  -13.1535  -24.6113 H   0  0  0  0  0  0  0  0  0  0  0  0
  -14.4836  -19.1826  -27.8058 H   0  0  0  0  0  0  0  0  0  0  0  0
  -14.2449  -21.6181  -28.0414 H   0  0  0  0  0  0  0  0  0  0  0  0
  -15.7384  -22.1440  -24.0617 H   0  0  0  0  0  0  0  0  0  0  0  0
  -16.0089  -19.7054  -23.8322 H   0  0  0  0  0  0  0  0  0  0  0  0
  -13.3822  -14.5372  -29.3498 H   0  0  0  0  0  0  0  0  0  0  0  0
  -12.8997  -15.9407  -28.3379 H   0  0  0  0  0  0  0  0  0  0  0  0
  -14.4137  -16.0070  -29.3024 H   0  0  0  0  0  0  0  0  0  0  0  0
  -15.0388  -24.0198  -25.2364 H   0  0  0  0  0  0  0  0  0  0  0  0
  -13.3876  -23.5435  -27.7380 H   0  0  0  0  0  0  0  0  0  0  0  0
  -12.8328  -24.0154  -26.0960 H   0  0  0  0  0  0  0  0  0  0  0  0
  -12.8005  -25.8435  -27.9400 H   0  0  0  0  0  0  0  0  0  0  0  0
  -13.5630  -26.2740  -26.3716 H   0  0  0  0  0  0  0  0  0  0  0  0
  -14.9805  -25.5090  -28.8695 H   0  0  0  0  0  0  0  0  0  0  0  0
  -17.0807  -25.9446  -27.6259 H   0  0  0  0  0  0  0  0  0  0  0  0
  -16.0684  -26.0366  -26.1448 H   0  0  0  0  0  0  0  0  0  0  0  0
  -17.0757  -23.7340  -26.5661 H   0  0  0  0  0  0  0  0  0  0  0  0
  -16.0971  -23.6437  -28.0698 H   0  0  0  0  0  0  0  0  0  0  0  0
  1  2  1  0  0  0  0
  1  3  2  0  0  0  0
  1 18  1  0  0  0  0
  2  4  1  0  0  0  0
  2  5  2  0  0  0  0
  3  6  1  0  0  0  0
  4  7  1  0  0  0  0
  4  8  1  0  0  0  0
  5 11  1  0  0  0  0
  6  7  2  0  0  0  0
  6 19  1  0  0  0  0
  8  9  1  0  0  0  0
  8 10  2  0  0  0  0
  9 11  2  0  0  0  0
 11 12  1  0  0  0  0
 12 13  2  0  0  0  0
 12 17  1  0  0  0  0
 13 14  1  0  0  0  0
 14 15  2  0  0  0  0
 15 16  1  0  0  0  0
 15 20  1  0  0  0  0
 16 17  2  0  0  0  0
 20 21  1  0  0  0  0
 20 25  1  0  0  0  0
 21 22  1  0  0  0  0
 22 23  1  0  0  0  0
 23 24  1  0  0  0  0
 24 25  1  0  0  0  0
  3 26  1  0  0  0  0
  4 27  1  0  0  0  0
  7 28  1  0  0  0  0
 13 29  1  0  0  0  0
 14 30  1  0  0  0  0
 16 31  1  0  0  0  0
 17 32  1  0  0  0  0
 18 33  1  0  0  0  0
 18 34  1  0  0  0  0
 18 35  1  0  0  0  0
 20 36  1  0  0  0  0
 21 37  1  0  0  0  0
 21 38  1  0  0  0  0
 22 39  1  0  0  0  0
 22 40  1  0  0  0  0
 23 41  1  0  0  0  0
 24 42  1  0  0  0  0
 24 43  1  0  0  0  0
 25 44  1  0  0  0  0
 25 45  1  0  0  0  0
M  END
> <Name>
8d

> <IC50[nM]>
0.7

$$$$
