7
  -OEChem-05192314333D
 Structure written by MMmdl.
 36 38  0     0  0  0  0  0  0999 V2000
  -15.1391  -19.1877  -26.0186 C   0  0  0  0  0  0  0  0  0  0  0  0
  -15.5010  -20.0128  -24.9471 N   0  0  0  0  0  0  0  0  0  0  0  0
  -14.5525  -19.7739  -27.1523 C   0  0  0  0  0  0  0  0  0  0  0  0
  -15.3503  -17.7235  -25.9544 C   0  0  0  0  0  0  0  0  0  0  0  0
  -15.2829  -21.3817  -25.0113 C   0  0  0  0  0  0  0  0  0  0  0  0
  -14.3643  -21.1508  -27.2261 C   0  0  0  0  0  0  0  0  0  0  0  0
  -14.7323  -21.9756  -26.1583 C   0  0  0  0  0  0  0  0  0  0  0  0
  -16.1184  -17.1836  -24.9340 N   0  0  0  0  0  0  0  0  0  0  0  0
  -16.3992  -15.8795  -24.6695 C   0  0  0  0  0  0  0  0  0  0  0  0
  -14.8462  -16.9083  -26.8217 N   0  0  0  0  0  0  0  0  0  0  0  0
  -15.0124  -15.5202  -26.7198 C   0  0  0  0  0  0  0  0  0  0  0  0
  -15.7518  -14.9489  -25.6748 C   0  0  0  0  0  0  0  0  0  0  0  0
  -15.8744  -13.5587  -25.5758 C   0  0  0  0  0  0  0  0  0  0  0  0
  -15.2543  -12.7508  -26.5345 C   0  0  0  0  0  0  0  0  0  0  0  0
  -14.5303  -13.3235  -27.5816 C   0  0  0  0  0  0  0  0  0  0  0  0
  -14.4104  -14.7092  -27.6795 C   0  0  0  0  0  0  0  0  0  0  0  0
  -17.1164  -15.5510  -23.7222 O   0  0  0  0  0  0  0  0  0  0  0  0
  -14.4845  -23.5033  -26.2094 C   0  0  0  0  0  0  0  0  0  0  0  0
  -14.2410  -23.9010  -27.5752 O   0  0  0  0  0  0  0  0  0  0  0  0
  -15.3500  -11.4050  -26.4634 F   0  0  0  0  0  0  0  0  0  0  0  0
  -15.6962  -24.2267  -25.5810 C   0  0  0  0  0  0  0  0  0  0  0  0
  -13.1775  -23.7773  -25.4569 C   0  0  0  0  0  0  0  0  0  0  0  0
  -14.2437  -19.1484  -27.9768 H   0  0  0  0  0  0  0  0  0  0  0  0
  -15.5410  -22.0007  -24.1648 H   0  0  0  0  0  0  0  0  0  0  0  0
  -13.9308  -21.5856  -28.1146 H   0  0  0  0  0  0  0  0  0  0  0  0
  -16.5228  -17.8465  -24.3039 H   0  0  0  0  0  0  0  0  0  0  0  0
  -16.4403  -13.1153  -24.7699 H   0  0  0  0  0  0  0  0  0  0  0  0
  -14.0607  -12.6901  -28.3196 H   0  0  0  0  0  0  0  0  0  0  0  0
  -13.8548  -15.1508  -28.4936 H   0  0  0  0  0  0  0  0  0  0  0  0
  -14.0885  -24.8380  -27.6103 H   0  0  0  0  0  0  0  0  0  0  0  0
  -15.5313  -25.3138  -25.6118 H   0  0  0  0  0  0  0  0  0  0  0  0
  -15.8147  -23.9034  -24.5363 H   0  0  0  0  0  0  0  0  0  0  0  0
  -16.6058  -23.9778  -26.1473 H   0  0  0  0  0  0  0  0  0  0  0  0
  -12.9653  -24.8565  -25.4706 H   0  0  0  0  0  0  0  0  0  0  0  0
  -12.3535  -23.2355  -25.9442 H   0  0  0  0  0  0  0  0  0  0  0  0
  -13.2756  -23.4362  -24.4157 H   0  0  0  0  0  0  0  0  0  0  0  0
  1  2  2  0  0  0  0
  1  3  1  0  0  0  0
  1  4  1  0  0  0  0
  2  5  1  0  0  0  0
  3  6  2  0  0  0  0
  4  8  1  0  0  0  0
  4 10  2  0  0  0  0
  5  7  2  0  0  0  0
  6  7  1  0  0  0  0
  7 18  1  0  0  0  0
  8  9  1  0  0  0  0
  9 12  1  0  0  0  0
  9 17  2  0  0  0  0
 10 11  1  0  0  0  0
 11 12  2  0  0  0  0
 11 16  1  0  0  0  0
 12 13  1  0  0  0  0
 13 14  2  0  0  0  0
 14 15  1  0  0  0  0
 14 20  1  0  0  0  0
 15 16  2  0  0  0  0
 18 19  1  0  0  0  0
 18 21  1  0  0  0  0
 18 22  1  0  0  0  0
  3 23  1  0  0  0  0
  5 24  1  0  0  0  0
  6 25  1  0  0  0  0
  8 26  1  0  0  0  0
 13 27  1  0  0  0  0
 15 28  1  0  0  0  0
 16 29  1  0  0  0  0
 19 30  1  0  0  0  0
 21 31  1  0  0  0  0
 21 32  1  0  0  0  0
 21 33  1  0  0  0  0
 22 34  1  0  0  0  0
 22 35  1  0  0  0  0
 22 36  1  0  0  0  0
M  END
> <Name>
7

> <IC50[nM]>
700

$$$$
7
  -OEChem-05192314333D
 Structure written by MMmdl.
 36 38  0     0  0  0  0  0  0999 V2000
  -15.1391  -19.1877  -26.0186 C   0  0  0  0  0  0  0  0  0  0  0  0
  -15.5010  -20.0128  -24.9471 N   0  0  0  0  0  0  0  0  0  0  0  0
  -14.5525  -19.7739  -27.1523 C   0  0  0  0  0  0  0  0  0  0  0  0
  -15.3503  -17.7235  -25.9544 C   0  0  0  0  0  0  0  0  0  0  0  0
  -15.2829  -21.3817  -25.0113 C   0  0  0  0  0  0  0  0  0  0  0  0
  -14.3643  -21.1508  -27.2261 C   0  0  0  0  0  0  0  0  0  0  0  0
  -14.7323  -21.9756  -26.1583 C   0  0  0  0  0  0  0  0  0  0  0  0
  -16.1184  -17.1836  -24.9340 N   0  0  0  0  0  0  0  0  0  0  0  0
  -16.3992  -15.8795  -24.6695 C   0  0  0  0  0  0  0  0  0  0  0  0
  -14.8462  -16.9083  -26.8217 N   0  0  0  0  0  0  0  0  0  0  0  0
  -15.0124  -15.5202  -26.7198 C   0  0  0  0  0  0  0  0  0  0  0  0
  -15.7518  -14.9489  -25.6748 C   0  0  0  0  0  0  0  0  0  0  0  0
  -15.8744  -13.5587  -25.5758 C   0  0  0  0  0  0  0  0  0  0  0  0
  -15.2543  -12.7508  -26.5345 C   0  0  0  0  0  0  0  0  0  0  0  0
  -14.5303  -13.3235  -27.5816 C   0  0  0  0  0  0  0  0  0  0  0  0
  -14.4104  -14.7092  -27.6795 C   0  0  0  0  0  0  0  0  0  0  0  0
  -17.1164  -15.5510  -23.7222 O   0  0  0  0  0  0  0  0  0  0  0  0
  -14.4845  -23.5033  -26.2094 C   0  0  0  0  0  0  0  0  0  0  0  0
  -14.2410  -23.9010  -27.5752 O   0  0  0  0  0  0  0  0  0  0  0  0
  -15.3500  -11.4050  -26.4634 F   0  0  0  0  0  0  0  0  0  0  0  0
  -15.6962  -24.2267  -25.5810 C   0  0  0  0  0  0  0  0  0  0  0  0
  -13.1775  -23.7773  -25.4569 C   0  0  0  0  0  0  0  0  0  0  0  0
  -14.2437  -19.1484  -27.9768 H   0  0  0  0  0  0  0  0  0  0  0  0
  -15.5410  -22.0007  -24.1648 H   0  0  0  0  0  0  0  0  0  0  0  0
  -13.9308  -21.5856  -28.1146 H   0  0  0  0  0  0  0  0  0  0  0  0
  -14.3219  -17.2790  -27.5883 H   0  0  0  0  0  0  0  0  0  0  0  0
  -16.4403  -13.1153  -24.7699 H   0  0  0  0  0  0  0  0  0  0  0  0
  -14.0607  -12.6901  -28.3196 H   0  0  0  0  0  0  0  0  0  0  0  0
  -13.8548  -15.1508  -28.4936 H   0  0  0  0  0  0  0  0  0  0  0  0
  -14.0885  -24.8380  -27.6103 H   0  0  0  0  0  0  0  0  0  0  0  0
  -15.5313  -25.3138  -25.6118 H   0  0  0  0  0  0  0  0  0  0  0  0
  -15.8147  -23.9034  -24.5363 H   0  0  0  0  0  0  0  0  0  0  0  0
  -16.6058  -23.9778  -26.1473 H   0  0  0  0  0  0  0  0  0  0  0  0
  -12.9653  -24.8565  -25.4706 H   0  0  0  0  0  0  0  0  0  0  0  0
  -12.3535  -23.2355  -25.9442 H   0  0  0  0  0  0  0  0  0  0  0  0
  -13.2756  -23.4362  -24.4157 H   0  0  0  0  0  0  0  0  0  0  0  0
  1  2  2  0  0  0  0
  1  3  1  0  0  0  0
  1  4  1  0  0  0  0
  2  5  1  0  0  0  0
  3  6  2  0  0  0  0
  4  8  2  0  0  0  0
  4 10  1  0  0  0  0
  5  7  2  0  0  0  0
  6  7  1  0  0  0  0
  7 18  1  0  0  0  0
  8  9  1  0  0  0  0
  9 12  1  0  0  0  0
  9 17  2  0  0  0  0
 10 11  1  0  0  0  0
 11 12  2  0  0  0  0
 11 16  1  0  0  0  0
 12 13  1  0  0  0  0
 13 14  2  0  0  0  0
 14 15  1  0  0  0  0
 14 20  1  0  0  0  0
 15 16  2  0  0  0  0
 18 19  1  0  0  0  0
 18 21  1  0  0  0  0
 18 22  1  0  0  0  0
  3 23  1  0  0  0  0
  5 24  1  0  0  0  0
  6 25  1  0  0  0  0
 10 26  1  0  0  0  0
 13 27  1  0  0  0  0
 15 28  1  0  0  0  0
 16 29  1  0  0  0  0
 19 30  1  0  0  0  0
 21 31  1  0  0  0  0
 21 32  1  0  0  0  0
 21 33  1  0  0  0  0
 22 34  1  0  0  0  0
 22 35  1  0  0  0  0
 22 36  1  0  0  0  0
M  END
> <Name>
7

> <IC50[nM]>
700

$$$$
7
  -OEChem-05192314333D
 Structure written by MMmdl.
 36 38  0     0  0  0  0  0  0999 V2000
  -15.1391  -19.1877  -26.0186 C   0  0  0  0  0  0  0  0  0  0  0  0
  -15.5010  -20.0128  -24.9471 N   0  0  0  0  0  0  0  0  0  0  0  0
  -14.5525  -19.7739  -27.1523 C   0  0  0  0  0  0  0  0  0  0  0  0
  -15.3503  -17.7235  -25.9544 C   0  0  0  0  0  0  0  0  0  0  0  0
  -15.2829  -21.3817  -25.0113 C   0  0  0  0  0  0  0  0  0  0  0  0
  -14.3643  -21.1508  -27.2261 C   0  0  0  0  0  0  0  0  0  0  0  0
  -14.7323  -21.9756  -26.1583 C   0  0  0  0  0  0  0  0  0  0  0  0
  -16.1184  -17.1836  -24.9340 N   0  0  0  0  0  0  0  0  0  0  0  0
  -16.3992  -15.8795  -24.6695 C   0  0  0  0  0  0  0  0  0  0  0  0
  -14.8462  -16.9083  -26.8217 N   0  0  0  0  0  0  0  0  0  0  0  0
  -15.0124  -15.5202  -26.7198 C   0  0  0  0  0  0  0  0  0  0  0  0
  -15.7518  -14.9489  -25.6748 C   0  0  0  0  0  0  0  0  0  0  0  0
  -15.8744  -13.5587  -25.5758 C   0  0  0  0  0  0  0  0  0  0  0  0
  -15.2543  -12.7508  -26.5345 C   0  0  0  0  0  0  0  0  0  0  0  0
  -14.5303  -13.3235  -27.5816 C   0  0  0  0  0  0  0  0  0  0  0  0
  -14.4104  -14.7092  -27.6795 C   0  0  0  0  0  0  0  0  0  0  0  0
  -17.1164  -15.5510  -23.7222 O   0  0  0  0  0  0  0  0  0  0  0  0
  -14.4845  -23.5033  -26.2094 C   0  0  0  0  0  0  0  0  0  0  0  0
  -14.2410  -23.9010  -27.5752 O   0  0  0  0  0  0  0  0  0  0  0  0
  -15.3500  -11.4050  -26.4634 F   0  0  0  0  0  0  0  0  0  0  0  0
  -15.6962  -24.2267  -25.5810 C   0  0  0  0  0  0  0  0  0  0  0  0
  -13.1775  -23.7773  -25.4569 C   0  0  0  0  0  0  0  0  0  0  0  0
  -14.2437  -19.1484  -27.9768 H   0  0  0  0  0  0  0  0  0  0  0  0
  -15.5410  -22.0007  -24.1648 H   0  0  0  0  0  0  0  0  0  0  0  0
  -13.9308  -21.5856  -28.1146 H   0  0  0  0  0  0  0  0  0  0  0  0
  -16.4403  -13.1153  -24.7699 H   0  0  0  0  0  0  0  0  0  0  0  0
  -14.0607  -12.6901  -28.3196 H   0  0  0  0  0  0  0  0  0  0  0  0
  -13.8548  -15.1508  -28.4936 H   0  0  0  0  0  0  0  0  0  0  0  0
  -17.4051  -16.3283  -23.2586 H   0  0  0  0  0  0  0  0  0  0  0  0
  -14.0885  -24.8380  -27.6103 H   0  0  0  0  0  0  0  0  0  0  0  0
  -15.5313  -25.3138  -25.6118 H   0  0  0  0  0  0  0  0  0  0  0  0
  -15.8147  -23.9034  -24.5363 H   0  0  0  0  0  0  0  0  0  0  0  0
  -16.6058  -23.9778  -26.1473 H   0  0  0  0  0  0  0  0  0  0  0  0
  -12.9653  -24.8565  -25.4706 H   0  0  0  0  0  0  0  0  0  0  0  0
  -12.3535  -23.2355  -25.9442 H   0  0  0  0  0  0  0  0  0  0  0  0
  -13.2756  -23.4362  -24.4157 H   0  0  0  0  0  0  0  0  0  0  0  0
  1  2  2  0  0  0  0
  1  3  1  0  0  0  0
  1  4  1  0  0  0  0
  2  5  1  0  0  0  0
  3  6  2  0  0  0  0
  4  8  2  0  0  0  0
  4 10  1  0  0  0  0
  5  7  2  0  0  0  0
  6  7  1  0  0  0  0
  7 18  1  0  0  0  0
  8  9  1  0  0  0  0
  9 12  2  0  0  0  0
  9 17  1  0  0  0  0
 10 11  2  0  0  0  0
 11 12  1  0  0  0  0
 11 16  1  0  0  0  0
 12 13  1  0  0  0  0
 13 14  2  0  0  0  0
 14 15  1  0  0  0  0
 14 20  1  0  0  0  0
 15 16  2  0  0  0  0
 18 19  1  0  0  0  0
 18 21  1  0  0  0  0
 18 22  1  0  0  0  0
  3 23  1  0  0  0  0
  5 24  1  0  0  0  0
  6 25  1  0  0  0  0
 13 26  1  0  0  0  0
 15 27  1  0  0  0  0
 16 28  1  0  0  0  0
 17 29  1  0  0  0  0
 19 30  1  0  0  0  0
 21 31  1  0  0  0  0
 21 32  1  0  0  0  0
 21 33  1  0  0  0  0
 22 34  1  0  0  0  0
 22 35  1  0  0  0  0
 22 36  1  0  0  0  0
M  END
> <Name>
7

> <IC50[nM]>
700

$$$$
7
  -OEChem-05192314333D
 Structure written by MMmdl.
 36 38  0     1  0  0  0  0  0999 V2000
  -15.1391  -19.1877  -26.0186 C   0  0  0  0  0  0  0  0  0  0  0  0
  -15.5010  -20.0128  -24.9471 N   0  0  0  0  0  0  0  0  0  0  0  0
  -14.5525  -19.7739  -27.1523 C   0  0  0  0  0  0  0  0  0  0  0  0
  -15.3503  -17.7235  -25.9544 C   0  0  0  0  0  0  0  0  0  0  0  0
  -15.2829  -21.3817  -25.0113 C   0  0  0  0  0  0  0  0  0  0  0  0
  -14.3643  -21.1508  -27.2261 C   0  0  0  0  0  0  0  0  0  0  0  0
  -14.7323  -21.9756  -26.1583 C   0  0  0  0  0  0  0  0  0  0  0  0
  -16.1184  -17.1836  -24.9340 N   0  0  0  0  0  0  0  0  0  0  0  0
  -16.3992  -15.8795  -24.6695 C   0  0  0  0  0  0  0  0  0  0  0  0
  -14.8462  -16.9083  -26.8217 N   0  0  0  0  0  0  0  0  0  0  0  0
  -15.0124  -15.5202  -26.7198 C   0  0  0  0  0  0  0  0  0  0  0  0
  -15.7518  -14.9489  -25.6748 C   0  0  0  0  0  0  0  0  0  0  0  0
  -15.8744  -13.5587  -25.5758 C   0  0  0  0  0  0  0  0  0  0  0  0
  -15.2543  -12.7508  -26.5345 C   0  0  3  0  0  0  0  0  0  0  0  0
  -14.5303  -13.3235  -27.5816 C   0  0  0  0  0  0  0  0  0  0  0  0
  -14.4104  -14.7092  -27.6795 C   0  0  0  0  0  0  0  0  0  0  0  0
  -17.1164  -15.5510  -23.7222 O   0  0  0  0  0  0  0  0  0  0  0  0
  -14.4845  -23.5033  -26.2094 C   0  0  0  0  0  0  0  0  0  0  0  0
  -14.2410  -23.9010  -27.5752 O   0  0  0  0  0  0  0  0  0  0  0  0
  -15.3500  -11.4050  -26.4634 F   0  0  0  0  0  0  0  0  0  0  0  0
  -15.6962  -24.2267  -25.5810 C   0  0  0  0  0  0  0  0  0  0  0  0
  -13.1775  -23.7773  -25.4569 C   0  0  0  0  0  0  0  0  0  0  0  0
  -14.2437  -19.1484  -27.9768 H   0  0  0  0  0  0  0  0  0  0  0  0
  -15.5410  -22.0007  -24.1648 H   0  0  0  0  0  0  0  0  0  0  0  0
  -13.9308  -21.5856  -28.1146 H   0  0  0  0  0  0  0  0  0  0  0  0
  -16.4403  -13.1153  -24.7699 H   0  0  0  0  0  0  0  0  0  0  0  0
  -14.3426  -12.7195  -25.9199 H   0  0  0  0  0  0  0  0  0  0  0  0
  -14.0607  -12.6901  -28.3196 H   0  0  0  0  0  0  0  0  0  0  0  0
  -13.8548  -15.1508  -28.4936 H   0  0  0  0  0  0  0  0  0  0  0  0
  -14.0885  -24.8380  -27.6103 H   0  0  0  0  0  0  0  0  0  0  0  0
  -15.5313  -25.3138  -25.6118 H   0  0  0  0  0  0  0  0  0  0  0  0
  -15.8147  -23.9034  -24.5363 H   0  0  0  0  0  0  0  0  0  0  0  0
  -16.6058  -23.9778  -26.1473 H   0  0  0  0  0  0  0  0  0  0  0  0
  -12.9653  -24.8565  -25.4706 H   0  0  0  0  0  0  0  0  0  0  0  0
  -12.3535  -23.2355  -25.9442 H   0  0  0  0  0  0  0  0  0  0  0  0
  -13.2756  -23.4362  -24.4157 H   0  0  0  0  0  0  0  0  0  0  0  0
  1  2  2  0  0  0  0
  1  3  1  0  0  0  0
  1  4  1  0  0  0  0
  2  5  1  0  0  0  0
  3  6  2  0  0  0  0
  4  8  2  0  0  0  0
  4 10  1  0  0  0  0
  5  7  2  0  0  0  0
  6  7  1  0  0  0  0
  7 18  1  0  0  0  0
  8  9  1  0  0  0  0
  9 12  1  0  0  0  0
  9 17  2  0  0  0  0
 10 11  2  0  0  0  0
 11 12  1  0  0  0  0
 11 16  1  0  0  0  0
 12 13  2  0  0  0  0
 13 14  1  0  0  0  0
 14 15  1  0  0  0  0
 14 20  1  0  0  0  0
 15 16  2  0  0  0  0
 18 19  1  0  0  0  0
 18 21  1  0  0  0  0
 18 22  1  0  0  0  0
  3 23  1  0  0  0  0
  5 24  1  0  0  0  0
  6 25  1  0  0  0  0
 13 26  1  0  0  0  0
 14 27  1  0  0  0  0
 15 28  1  0  0  0  0
 16 29  1  0  0  0  0
 19 30  1  0  0  0  0
 21 31  1  0  0  0  0
 21 32  1  0  0  0  0
 21 33  1  0  0  0  0
 22 34  1  0  0  0  0
 22 35  1  0  0  0  0
 22 36  1  0  0  0  0
M  END
> <Name>
7

> <IC50[nM]>
700

$$$$
7
  -OEChem-05192314333D
 Structure written by MMmdl.
 36 38  0     1  0  0  0  0  0999 V2000
  -15.1391  -19.1877  -26.0186 C   0  0  0  0  0  0  0  0  0  0  0  0
  -15.5010  -20.0128  -24.9471 N   0  0  0  0  0  0  0  0  0  0  0  0
  -14.5525  -19.7739  -27.1523 C   0  0  0  0  0  0  0  0  0  0  0  0
  -15.3503  -17.7235  -25.9544 C   0  0  0  0  0  0  0  0  0  0  0  0
  -15.2829  -21.3817  -25.0113 C   0  0  0  0  0  0  0  0  0  0  0  0
  -14.3643  -21.1508  -27.2261 C   0  0  0  0  0  0  0  0  0  0  0  0
  -14.7323  -21.9756  -26.1583 C   0  0  0  0  0  0  0  0  0  0  0  0
  -16.1184  -17.1836  -24.9340 N   0  0  0  0  0  0  0  0  0  0  0  0
  -16.3992  -15.8795  -24.6695 C   0  0  0  0  0  0  0  0  0  0  0  0
  -14.8462  -16.9083  -26.8217 N   0  0  0  0  0  0  0  0  0  0  0  0
  -15.0124  -15.5202  -26.7198 C   0  0  0  0  0  0  0  0  0  0  0  0
  -15.7518  -14.9489  -25.6748 C   0  0  3  0  0  0  0  0  0  0  0  0
  -15.8744  -13.5587  -25.5758 C   0  0  0  0  0  0  0  0  0  0  0  0
  -15.2543  -12.7508  -26.5345 C   0  0  0  0  0  0  0  0  0  0  0  0
  -14.5303  -13.3235  -27.5816 C   0  0  0  0  0  0  0  0  0  0  0  0
  -14.4104  -14.7092  -27.6795 C   0  0  0  0  0  0  0  0  0  0  0  0
  -17.1164  -15.5510  -23.7222 O   0  0  0  0  0  0  0  0  0  0  0  0
  -14.4845  -23.5033  -26.2094 C   0  0  0  0  0  0  0  0  0  0  0  0
  -14.2410  -23.9010  -27.5752 O   0  0  0  0  0  0  0  0  0  0  0  0
  -15.3500  -11.4050  -26.4634 F   0  0  0  0  0  0  0  0  0  0  0  0
  -15.6962  -24.2267  -25.5810 C   0  0  0  0  0  0  0  0  0  0  0  0
  -13.1775  -23.7773  -25.4569 C   0  0  0  0  0  0  0  0  0  0  0  0
  -14.2437  -19.1484  -27.9768 H   0  0  0  0  0  0  0  0  0  0  0  0
  -15.5410  -22.0007  -24.1648 H   0  0  0  0  0  0  0  0  0  0  0  0
  -13.9308  -21.5856  -28.1146 H   0  0  0  0  0  0  0  0  0  0  0  0
  -16.6594  -14.9859  -26.2952 H   0  0  0  0  0  0  0  0  0  0  0  0
  -16.4403  -13.1153  -24.7699 H   0  0  0  0  0  0  0  0  0  0  0  0
  -14.0607  -12.6901  -28.3196 H   0  0  0  0  0  0  0  0  0  0  0  0
  -13.8548  -15.1508  -28.4936 H   0  0  0  0  0  0  0  0  0  0  0  0
  -14.0885  -24.8380  -27.6103 H   0  0  0  0  0  0  0  0  0  0  0  0
  -15.5313  -25.3138  -25.6118 H   0  0  0  0  0  0  0  0  0  0  0  0
  -15.8147  -23.9034  -24.5363 H   0  0  0  0  0  0  0  0  0  0  0  0
  -16.6058  -23.9778  -26.1473 H   0  0  0  0  0  0  0  0  0  0  0  0
  -12.9653  -24.8565  -25.4706 H   0  0  0  0  0  0  0  0  0  0  0  0
  -12.3535  -23.2355  -25.9442 H   0  0  0  0  0  0  0  0  0  0  0  0
  -13.2756  -23.4362  -24.4157 H   0  0  0  0  0  0  0  0  0  0  0  0
  1  2  2  0  0  0  0
  1  3  1  0  0  0  0
  1  4  1  0  0  0  0
  2  5  1  0  0  0  0
  3  6  2  0  0  0  0
  4  8  2  0  0  0  0
  4 10  1  0  0  0  0
  5  7  2  0  0  0  0
  6  7  1  0  0  0  0
  7 18  1  0  0  0  0
  8  9  1  0  0  0  0
  9 12  1  0  0  0  0
  9 17  2  0  0  0  0
 10 11  2  0  0  0  0
 11 12  1  0  0  0  0
 11 16  1  0  0  0  0
 12 13  1  0  0  0  0
 13 14  2  0  0  0  0
 14 15  1  0  0  0  0
 14 20  1  0  0  0  0
 15 16  2  0  0  0  0
 18 19  1  0  0  0  0
 18 21  1  0  0  0  0
 18 22  1  0  0  0  0
  3 23  1  0  0  0  0
  5 24  1  0  0  0  0
  6 25  1  0  0  0  0
 12 26  1  0  0  0  0
 13 27  1  0  0  0  0
 15 28  1  0  0  0  0
 16 29  1  0  0  0  0
 19 30  1  0  0  0  0
 21 31  1  0  0  0  0
 21 32  1  0  0  0  0
 21 33  1  0  0  0  0
 22 34  1  0  0  0  0
 22 35  1  0  0  0  0
 22 36  1  0  0  0  0
M  END
> <Name>
7

> <IC50[nM]>
700

$$$$
7
  -OEChem-05192314333D
 Structure written by MMmdl.
 36 38  0     0  0  0  0  0  0999 V2000
  -15.1391  -19.1877  -26.0186 C   0  0  0  0  0  0  0  0  0  0  0  0
  -15.5010  -20.0128  -24.9471 N   0  0  0  0  0  0  0  0  0  0  0  0
  -14.5525  -19.7739  -27.1523 C   0  0  0  0  0  0  0  0  0  0  0  0
  -15.3503  -17.7235  -25.9544 C   0  0  0  0  0  0  0  0  0  0  0  0
  -15.2829  -21.3817  -25.0113 C   0  0  0  0  0  0  0  0  0  0  0  0
  -14.3643  -21.1508  -27.2261 C   0  0  0  0  0  0  0  0  0  0  0  0
  -14.7323  -21.9756  -26.1583 C   0  0  0  0  0  0  0  0  0  0  0  0
  -16.1184  -17.1836  -24.9340 N   0  0  0  0  0  0  0  0  0  0  0  0
  -16.3992  -15.8795  -24.6695 C   0  0  0  0  0  0  0  0  0  0  0  0
  -14.8462  -16.9083  -26.8217 N   0  0  0  0  0  0  0  0  0  0  0  0
  -15.0124  -15.5202  -26.7198 C   0  0  0  0  0  0  0  0  0  0  0  0
  -15.7518  -14.9489  -25.6748 C   0  0  0  0  0  0  0  0  0  0  0  0
  -15.8744  -13.5587  -25.5758 C   0  0  0  0  0  0  0  0  0  0  0  0
  -15.2543  -12.7508  -26.5345 C   0  0  0  0  0  0  0  0  0  0  0  0
  -14.5303  -13.3235  -27.5816 C   0  0  0  0  0  0  0  0  0  0  0  0
  -14.4104  -14.7092  -27.6795 C   0  0  0  0  0  0  0  0  0  0  0  0
  -17.1164  -15.5510  -23.7222 O   0  0  0  0  0  0  0  0  0  0  0  0
  -14.4845  -23.5033  -26.2094 C   0  0  0  0  0  0  0  0  0  0  0  0
  -14.2410  -23.9010  -27.5752 O   0  0  0  0  0  0  0  0  0  0  0  0
  -15.3500  -11.4050  -26.4634 F   0  0  0  0  0  0  0  0  0  0  0  0
  -15.6962  -24.2267  -25.5810 C   0  0  0  0  0  0  0  0  0  0  0  0
  -13.1775  -23.7773  -25.4569 C   0  0  0  0  0  0  0  0  0  0  0  0
  -14.2437  -19.1484  -27.9768 H   0  0  0  0  0  0  0  0  0  0  0  0
  -15.5410  -22.0007  -24.1648 H   0  0  0  0  0  0  0  0  0  0  0  0
  -13.9308  -21.5856  -28.1146 H   0  0  0  0  0  0  0  0  0  0  0  0
  -16.4403  -13.1153  -24.7699 H   0  0  0  0  0  0  0  0  0  0  0  0
  -14.0607  -12.6901  -28.3196 H   0  0  0  0  0  0  0  0  0  0  0  0
  -13.3348  -14.9390  -27.6632 H   0  0  0  0  0  0  0  0  0  0  0  0
  -14.8325  -14.9987  -28.6532 H   0  0  0  0  0  0  0  0  0  0  0  0
  -14.0885  -24.8380  -27.6103 H   0  0  0  0  0  0  0  0  0  0  0  0
  -15.5313  -25.3138  -25.6118 H   0  0  0  0  0  0  0  0  0  0  0  0
  -15.8147  -23.9034  -24.5363 H   0  0  0  0  0  0  0  0  0  0  0  0
  -16.6058  -23.9778  -26.1473 H   0  0  0  0  0  0  0  0  0  0  0  0
  -12.9653  -24.8565  -25.4706 H   0  0  0  0  0  0  0  0  0  0  0  0
  -12.3535  -23.2355  -25.9442 H   0  0  0  0  0  0  0  0  0  0  0  0
  -13.2756  -23.4362  -24.4157 H   0  0  0  0  0  0  0  0  0  0  0  0
  1  2  2  0  0  0  0
  1  3  1  0  0  0  0
  1  4  1  0  0  0  0
  2  5  1  0  0  0  0
  3  6  2  0  0  0  0
  4  8  2  0  0  0  0
  4 10  1  0  0  0  0
  5  7  2  0  0  0  0
  6  7  1  0  0  0  0
  7 18  1  0  0  0  0
  8  9  1  0  0  0  0
  9 12  1  0  0  0  0
  9 17  2  0  0  0  0
 10 11  2  0  0  0  0
 11 12  1  0  0  0  0
 11 16  1  0  0  0  0
 12 13  2  0  0  0  0
 13 14  1  0  0  0  0
 14 15  2  0  0  0  0
 14 20  1  0  0  0  0
 15 16  1  0  0  0  0
 18 19  1  0  0  0  0
 18 21  1  0  0  0  0
 18 22  1  0  0  0  0
  3 23  1  0  0  0  0
  5 24  1  0  0  0  0
  6 25  1  0  0  0  0
 13 26  1  0  0  0  0
 15 27  1  0  0  0  0
 16 28  1  0  0  0  0
 16 29  1  0  0  0  0
 19 30  1  0  0  0  0
 21 31  1  0  0  0  0
 21 32  1  0  0  0  0
 21 33  1  0  0  0  0
 22 34  1  0  0  0  0
 22 35  1  0  0  0  0
 22 36  1  0  0  0  0
M  END
> <Name>
7

> <IC50[nM]>
700

$$$$
