5m
  -OEChem-05192314333D
 Structure written by MMmdl.
 40 42  0     0  0  0  0  0  0999 V2000
  -15.3524  -19.2206  -25.9684 C   0  0  0  0  0  0  0  0  0  0  0  0
  -14.6526  -19.7081  -27.0823 C   0  0  0  0  0  0  0  0  0  0  0  0
  -15.8555  -20.1235  -25.0241 C   0  0  0  0  0  0  0  0  0  0  0  0
  -14.4541  -21.0636  -27.2485 C   0  0  0  0  0  0  0  0  0  0  0  0
  -15.6357  -21.4854  -25.1840 C   0  0  0  0  0  0  0  0  0  0  0  0
  -15.0526  -16.9445  -26.6871 N   0  0  0  0  0  0  0  0  0  0  0  0
  -14.9347  -21.9631  -26.2988 C   0  0  0  0  0  0  0  0  0  0  0  0
  -14.5888  -23.4446  -26.4247 C   0  0  0  0  0  0  0  0  0  0  0  0
  -15.2162  -15.5610  -26.5929 C   0  0  0  0  0  0  0  0  0  0  0  0
  -15.9031  -15.0059  -25.5037 C   0  0  0  0  0  0  0  0  0  0  0  0
  -15.4462  -12.8187  -26.3599 C   0  0  0  0  0  0  0  0  0  0  0  0
  -14.7773  -13.3552  -27.4525 C   0  0  0  0  0  0  0  0  0  0  0  0
  -16.0203  -13.6235  -25.3815 C   0  0  0  0  0  0  0  0  0  0  0  0
  -14.6768  -14.7359  -27.5934 C   0  0  0  0  0  0  0  0  0  0  0  0
  -16.5313  -15.9392  -24.4895 C   0  0  0  0  0  0  0  0  0  0  0  0
  -16.2584  -17.2435  -24.7671 N   0  0  0  0  0  0  0  0  0  0  0  0
  -15.5317  -17.7669  -25.8203 C   0  0  0  0  0  0  0  0  0  0  0  0
  -17.2406  -15.6098  -23.5374 O   0  0  0  0  0  0  0  0  0  0  0  0
  -15.7674  -24.3602  -26.0940 C   0  0  0  0  0  0  0  0  0  0  0  0
  -14.2652  -23.8414  -27.7410 O   0  0  0  0  0  0  0  0  0  0  0  0
  -13.3585  -23.6997  -25.5565 C   0  0  0  0  0  0  0  0  0  0  0  0
  -13.9802  -15.2817  -28.8279 C   0  0  0  0  0  0  0  0  0  0  0  0
  -15.5606  -11.4961  -26.2801 F   0  0  0  0  0  0  0  0  0  0  0  0
  -14.2658  -19.0165  -27.8162 H   0  0  0  0  0  0  0  0  0  0  0  0
  -16.4134  -19.7617  -24.1731 H   0  0  0  0  0  0  0  0  0  0  0  0
  -13.9251  -21.4282  -28.1166 H   0  0  0  0  0  0  0  0  0  0  0  0
  -16.0072  -22.1799  -24.4450 H   0  0  0  0  0  0  0  0  0  0  0  0
  -14.3362  -12.7023  -28.1911 H   0  0  0  0  0  0  0  0  0  0  0  0
  -16.5455  -13.1860  -24.5453 H   0  0  0  0  0  0  0  0  0  0  0  0
  -16.6331  -17.9115  -24.1242 H   0  0  0  0  0  0  0  0  0  0  0  0
  -15.4582  -25.4103  -26.2020 H   0  0  0  0  0  0  0  0  0  0  0  0
  -16.0934  -24.1787  -25.0592 H   0  0  0  0  0  0  0  0  0  0  0  0
  -16.5991  -24.1503  -26.7827 H   0  0  0  0  0  0  0  0  0  0  0  0
  -14.0609  -24.7691  -27.7514 H   0  0  0  0  0  0  0  0  0  0  0  0
  -13.0771  -24.7611  -25.6212 H   0  0  0  0  0  0  0  0  0  0  0  0
  -12.5240  -23.0770  -25.9113 H   0  0  0  0  0  0  0  0  0  0  0  0
  -13.5880  -23.4444  -24.5114 H   0  0  0  0  0  0  0  0  0  0  0  0
  -14.7178  -15.4297  -29.6305 H   0  0  0  0  0  0  0  0  0  0  0  0
  -13.2133  -14.5673  -29.1620 H   0  0  0  0  0  0  0  0  0  0  0  0
  -13.5046  -16.2434  -28.5853 H   0  0  0  0  0  0  0  0  0  0  0  0
  1  2  2  0  0  0  0
  1  3  1  0  0  0  0
  1 17  1  0  0  0  0
  2  4  1  0  0  0  0
  3  5  2  0  0  0  0
  4  7  2  0  0  0  0
  5  7  1  0  0  0  0
  6  9  1  0  0  0  0
  6 17  2  0  0  0  0
  7  8  1  0  0  0  0
  8 19  1  0  0  0  0
  8 20  1  0  0  0  0
  8 21  1  0  0  0  0
  9 10  2  0  0  0  0
  9 14  1  0  0  0  0
 10 13  1  0  0  0  0
 10 15  1  0  0  0  0
 11 12  1  0  0  0  0
 11 13  2  0  0  0  0
 11 23  1  0  0  0  0
 12 14  2  0  0  0  0
 14 22  1  0  0  0  0
 15 16  1  0  0  0  0
 15 18  2  0  0  0  0
 16 17  1  0  0  0  0
  2 24  1  0  0  0  0
  3 25  1  0  0  0  0
  4 26  1  0  0  0  0
  5 27  1  0  0  0  0
 12 28  1  0  0  0  0
 13 29  1  0  0  0  0
 16 30  1  0  0  0  0
 19 31  1  0  0  0  0
 19 32  1  0  0  0  0
 19 33  1  0  0  0  0
 20 34  1  0  0  0  0
 21 35  1  0  0  0  0
 21 36  1  0  0  0  0
 21 37  1  0  0  0  0
 22 38  1  0  0  0  0
 22 39  1  0  0  0  0
 22 40  1  0  0  0  0
M  END
> <Name>
5m

> <IC50[nM]>
0.5

$$$$
5m
  -OEChem-05192314333D
 Structure written by MMmdl.
 40 42  0     0  0  0  0  0  0999 V2000
  -15.3524  -19.2206  -25.9684 C   0  0  0  0  0  0  0  0  0  0  0  0
  -14.6526  -19.7081  -27.0823 C   0  0  0  0  0  0  0  0  0  0  0  0
  -15.8555  -20.1235  -25.0241 C   0  0  0  0  0  0  0  0  0  0  0  0
  -14.4541  -21.0636  -27.2485 C   0  0  0  0  0  0  0  0  0  0  0  0
  -15.6357  -21.4854  -25.1840 C   0  0  0  0  0  0  0  0  0  0  0  0
  -15.0526  -16.9445  -26.6871 N   0  0  0  0  0  0  0  0  0  0  0  0
  -14.9347  -21.9631  -26.2988 C   0  0  0  0  0  0  0  0  0  0  0  0
  -14.5888  -23.4446  -26.4247 C   0  0  0  0  0  0  0  0  0  0  0  0
  -15.2162  -15.5610  -26.5929 C   0  0  0  0  0  0  0  0  0  0  0  0
  -15.9031  -15.0059  -25.5037 C   0  0  0  0  0  0  0  0  0  0  0  0
  -15.4462  -12.8187  -26.3599 C   0  0  0  0  0  0  0  0  0  0  0  0
  -14.7773  -13.3552  -27.4525 C   0  0  0  0  0  0  0  0  0  0  0  0
  -16.0203  -13.6235  -25.3815 C   0  0  0  0  0  0  0  0  0  0  0  0
  -14.6768  -14.7359  -27.5934 C   0  0  0  0  0  0  0  0  0  0  0  0
  -16.5313  -15.9392  -24.4895 C   0  0  0  0  0  0  0  0  0  0  0  0
  -16.2584  -17.2435  -24.7671 N   0  0  0  0  0  0  0  0  0  0  0  0
  -15.5317  -17.7669  -25.8203 C   0  0  0  0  0  0  0  0  0  0  0  0
  -17.2406  -15.6098  -23.5374 O   0  0  0  0  0  0  0  0  0  0  0  0
  -15.7674  -24.3602  -26.0940 C   0  0  0  0  0  0  0  0  0  0  0  0
  -14.2652  -23.8414  -27.7410 O   0  0  0  0  0  0  0  0  0  0  0  0
  -13.3585  -23.6997  -25.5565 C   0  0  0  0  0  0  0  0  0  0  0  0
  -13.9802  -15.2817  -28.8279 C   0  0  0  0  0  0  0  0  0  0  0  0
  -15.5606  -11.4961  -26.2801 F   0  0  0  0  0  0  0  0  0  0  0  0
  -14.2658  -19.0165  -27.8162 H   0  0  0  0  0  0  0  0  0  0  0  0
  -16.4134  -19.7617  -24.1731 H   0  0  0  0  0  0  0  0  0  0  0  0
  -13.9251  -21.4282  -28.1166 H   0  0  0  0  0  0  0  0  0  0  0  0
  -16.0072  -22.1799  -24.4450 H   0  0  0  0  0  0  0  0  0  0  0  0
  -14.5402  -17.3130  -27.4628 H   0  0  0  0  0  0  0  0  0  0  0  0
  -14.3362  -12.7023  -28.1911 H   0  0  0  0  0  0  0  0  0  0  0  0
  -16.5455  -13.1860  -24.5453 H   0  0  0  0  0  0  0  0  0  0  0  0
  -15.4582  -25.4103  -26.2020 H   0  0  0  0  0  0  0  0  0  0  0  0
  -16.0934  -24.1787  -25.0592 H   0  0  0  0  0  0  0  0  0  0  0  0
  -16.5991  -24.1503  -26.7827 H   0  0  0  0  0  0  0  0  0  0  0  0
  -14.0609  -24.7691  -27.7514 H   0  0  0  0  0  0  0  0  0  0  0  0
  -13.0771  -24.7611  -25.6212 H   0  0  0  0  0  0  0  0  0  0  0  0
  -12.5240  -23.0770  -25.9113 H   0  0  0  0  0  0  0  0  0  0  0  0
  -13.5880  -23.4444  -24.5114 H   0  0  0  0  0  0  0  0  0  0  0  0
  -14.7178  -15.4297  -29.6305 H   0  0  0  0  0  0  0  0  0  0  0  0
  -13.2133  -14.5673  -29.1620 H   0  0  0  0  0  0  0  0  0  0  0  0
  -13.5046  -16.2434  -28.5853 H   0  0  0  0  0  0  0  0  0  0  0  0
  1  2  2  0  0  0  0
  1  3  1  0  0  0  0
  1 17  1  0  0  0  0
  2  4  1  0  0  0  0
  3  5  2  0  0  0  0
  4  7  2  0  0  0  0
  5  7  1  0  0  0  0
  6  9  1  0  0  0  0
  6 17  1  0  0  0  0
  7  8  1  0  0  0  0
  8 19  1  0  0  0  0
  8 20  1  0  0  0  0
  8 21  1  0  0  0  0
  9 10  2  0  0  0  0
  9 14  1  0  0  0  0
 10 13  1  0  0  0  0
 10 15  1  0  0  0  0
 11 12  1  0  0  0  0
 11 13  2  0  0  0  0
 11 23  1  0  0  0  0
 12 14  2  0  0  0  0
 14 22  1  0  0  0  0
 15 16  1  0  0  0  0
 15 18  2  0  0  0  0
 16 17  2  0  0  0  0
  2 24  1  0  0  0  0
  3 25  1  0  0  0  0
  4 26  1  0  0  0  0
  5 27  1  0  0  0  0
  6 28  1  0  0  0  0
 12 29  1  0  0  0  0
 13 30  1  0  0  0  0
 19 31  1  0  0  0  0
 19 32  1  0  0  0  0
 19 33  1  0  0  0  0
 20 34  1  0  0  0  0
 21 35  1  0  0  0  0
 21 36  1  0  0  0  0
 21 37  1  0  0  0  0
 22 38  1  0  0  0  0
 22 39  1  0  0  0  0
 22 40  1  0  0  0  0
M  END
> <Name>
5m

> <IC50[nM]>
0.5

$$$$
5m
  -OEChem-05192314333D
 Structure written by MMmdl.
 40 42  0     0  0  0  0  0  0999 V2000
  -15.3524  -19.2206  -25.9684 C   0  0  0  0  0  0  0  0  0  0  0  0
  -14.6526  -19.7081  -27.0823 C   0  0  0  0  0  0  0  0  0  0  0  0
  -15.8555  -20.1235  -25.0241 C   0  0  0  0  0  0  0  0  0  0  0  0
  -14.4541  -21.0636  -27.2485 C   0  0  0  0  0  0  0  0  0  0  0  0
  -15.6357  -21.4854  -25.1840 C   0  0  0  0  0  0  0  0  0  0  0  0
  -15.0526  -16.9445  -26.6871 N   0  0  0  0  0  0  0  0  0  0  0  0
  -14.9347  -21.9631  -26.2988 C   0  0  0  0  0  0  0  0  0  0  0  0
  -14.5888  -23.4446  -26.4247 C   0  0  0  0  0  0  0  0  0  0  0  0
  -15.2162  -15.5610  -26.5929 C   0  0  0  0  0  0  0  0  0  0  0  0
  -15.9031  -15.0059  -25.5037 C   0  0  0  0  0  0  0  0  0  0  0  0
  -15.4462  -12.8187  -26.3599 C   0  0  0  0  0  0  0  0  0  0  0  0
  -14.7773  -13.3552  -27.4525 C   0  0  0  0  0  0  0  0  0  0  0  0
  -16.0203  -13.6235  -25.3815 C   0  0  0  0  0  0  0  0  0  0  0  0
  -14.6768  -14.7359  -27.5934 C   0  0  0  0  0  0  0  0  0  0  0  0
  -16.5313  -15.9392  -24.4895 C   0  0  0  0  0  0  0  0  0  0  0  0
  -16.2584  -17.2435  -24.7671 N   0  0  0  0  0  0  0  0  0  0  0  0
  -15.5317  -17.7669  -25.8203 C   0  0  0  0  0  0  0  0  0  0  0  0
  -17.2406  -15.6098  -23.5374 O   0  0  0  0  0  0  0  0  0  0  0  0
  -15.7674  -24.3602  -26.0940 C   0  0  0  0  0  0  0  0  0  0  0  0
  -14.2652  -23.8414  -27.7410 O   0  0  0  0  0  0  0  0  0  0  0  0
  -13.3585  -23.6997  -25.5565 C   0  0  0  0  0  0  0  0  0  0  0  0
  -13.9802  -15.2817  -28.8279 C   0  0  0  0  0  0  0  0  0  0  0  0
  -15.5606  -11.4961  -26.2801 F   0  0  0  0  0  0  0  0  0  0  0  0
  -14.2658  -19.0165  -27.8162 H   0  0  0  0  0  0  0  0  0  0  0  0
  -16.4134  -19.7617  -24.1731 H   0  0  0  0  0  0  0  0  0  0  0  0
  -13.9251  -21.4282  -28.1166 H   0  0  0  0  0  0  0  0  0  0  0  0
  -16.0072  -22.1799  -24.4450 H   0  0  0  0  0  0  0  0  0  0  0  0
  -14.3362  -12.7023  -28.1911 H   0  0  0  0  0  0  0  0  0  0  0  0
  -16.5455  -13.1860  -24.5453 H   0  0  0  0  0  0  0  0  0  0  0  0
  -17.5331  -16.3870  -23.0760 H   0  0  0  0  0  0  0  0  0  0  0  0
  -15.4582  -25.4103  -26.2020 H   0  0  0  0  0  0  0  0  0  0  0  0
  -16.0934  -24.1787  -25.0592 H   0  0  0  0  0  0  0  0  0  0  0  0
  -16.5991  -24.1503  -26.7827 H   0  0  0  0  0  0  0  0  0  0  0  0
  -14.0609  -24.7691  -27.7514 H   0  0  0  0  0  0  0  0  0  0  0  0
  -13.0771  -24.7611  -25.6212 H   0  0  0  0  0  0  0  0  0  0  0  0
  -12.5240  -23.0770  -25.9113 H   0  0  0  0  0  0  0  0  0  0  0  0
  -13.5880  -23.4444  -24.5114 H   0  0  0  0  0  0  0  0  0  0  0  0
  -14.7178  -15.4297  -29.6305 H   0  0  0  0  0  0  0  0  0  0  0  0
  -13.2133  -14.5673  -29.1620 H   0  0  0  0  0  0  0  0  0  0  0  0
  -13.5046  -16.2434  -28.5853 H   0  0  0  0  0  0  0  0  0  0  0  0
  1  2  2  0  0  0  0
  1  3  1  0  0  0  0
  1 17  1  0  0  0  0
  2  4  1  0  0  0  0
  3  5  2  0  0  0  0
  4  7  2  0  0  0  0
  5  7  1  0  0  0  0
  6  9  2  0  0  0  0
  6 17  1  0  0  0  0
  7  8  1  0  0  0  0
  8 19  1  0  0  0  0
  8 20  1  0  0  0  0
  8 21  1  0  0  0  0
  9 10  1  0  0  0  0
  9 14  1  0  0  0  0
 10 13  1  0  0  0  0
 10 15  2  0  0  0  0
 11 12  1  0  0  0  0
 11 13  2  0  0  0  0
 11 23  1  0  0  0  0
 12 14  2  0  0  0  0
 14 22  1  0  0  0  0
 15 16  1  0  0  0  0
 15 18  1  0  0  0  0
 16 17  2  0  0  0  0
  2 24  1  0  0  0  0
  3 25  1  0  0  0  0
  4 26  1  0  0  0  0
  5 27  1  0  0  0  0
 12 28  1  0  0  0  0
 13 29  1  0  0  0  0
 18 30  1  0  0  0  0
 19 31  1  0  0  0  0
 19 32  1  0  0  0  0
 19 33  1  0  0  0  0
 20 34  1  0  0  0  0
 21 35  1  0  0  0  0
 21 36  1  0  0  0  0
 21 37  1  0  0  0  0
 22 38  1  0  0  0  0
 22 39  1  0  0  0  0
 22 40  1  0  0  0  0
M  END
> <Name>
5m

> <IC50[nM]>
0.5

$$$$
5m
  -OEChem-05192314333D
 Structure written by MMmdl.
 40 42  0     1  0  0  0  0  0999 V2000
  -15.3524  -19.2206  -25.9684 C   0  0  0  0  0  0  0  0  0  0  0  0
  -14.6526  -19.7081  -27.0823 C   0  0  0  0  0  0  0  0  0  0  0  0
  -15.8555  -20.1235  -25.0241 C   0  0  0  0  0  0  0  0  0  0  0  0
  -14.4541  -21.0636  -27.2485 C   0  0  0  0  0  0  0  0  0  0  0  0
  -15.6357  -21.4854  -25.1840 C   0  0  0  0  0  0  0  0  0  0  0  0
  -15.0526  -16.9445  -26.6871 N   0  0  0  0  0  0  0  0  0  0  0  0
  -14.9347  -21.9631  -26.2988 C   0  0  0  0  0  0  0  0  0  0  0  0
  -14.5888  -23.4446  -26.4247 C   0  0  0  0  0  0  0  0  0  0  0  0
  -15.2162  -15.5610  -26.5929 C   0  0  0  0  0  0  0  0  0  0  0  0
  -15.9031  -15.0059  -25.5037 C   0  0  0  0  0  0  0  0  0  0  0  0
  -15.4462  -12.8187  -26.3599 C   0  0  3  0  0  0  0  0  0  0  0  0
  -14.7773  -13.3552  -27.4525 C   0  0  0  0  0  0  0  0  0  0  0  0
  -16.0203  -13.6235  -25.3815 C   0  0  0  0  0  0  0  0  0  0  0  0
  -14.6768  -14.7359  -27.5934 C   0  0  0  0  0  0  0  0  0  0  0  0
  -16.5313  -15.9392  -24.4895 C   0  0  0  0  0  0  0  0  0  0  0  0
  -16.2584  -17.2435  -24.7671 N   0  0  0  0  0  0  0  0  0  0  0  0
  -15.5317  -17.7669  -25.8203 C   0  0  0  0  0  0  0  0  0  0  0  0
  -17.2406  -15.6098  -23.5374 O   0  0  0  0  0  0  0  0  0  0  0  0
  -15.7674  -24.3602  -26.0940 C   0  0  0  0  0  0  0  0  0  0  0  0
  -14.2652  -23.8414  -27.7410 O   0  0  0  0  0  0  0  0  0  0  0  0
  -13.3585  -23.6997  -25.5565 C   0  0  0  0  0  0  0  0  0  0  0  0
  -13.9802  -15.2817  -28.8279 C   0  0  0  0  0  0  0  0  0  0  0  0
  -15.5606  -11.4961  -26.2801 F   0  0  0  0  0  0  0  0  0  0  0  0
  -14.2658  -19.0165  -27.8162 H   0  0  0  0  0  0  0  0  0  0  0  0
  -16.4134  -19.7617  -24.1731 H   0  0  0  0  0  0  0  0  0  0  0  0
  -13.9251  -21.4282  -28.1166 H   0  0  0  0  0  0  0  0  0  0  0  0
  -16.0072  -22.1799  -24.4450 H   0  0  0  0  0  0  0  0  0  0  0  0
  -14.5057  -12.7815  -25.7906 H   0  0  0  0  0  0  0  0  0  0  0  0
  -14.3362  -12.7023  -28.1911 H   0  0  0  0  0  0  0  0  0  0  0  0
  -16.5455  -13.1860  -24.5453 H   0  0  0  0  0  0  0  0  0  0  0  0
  -15.4582  -25.4103  -26.2020 H   0  0  0  0  0  0  0  0  0  0  0  0
  -16.0934  -24.1787  -25.0592 H   0  0  0  0  0  0  0  0  0  0  0  0
  -16.5991  -24.1503  -26.7827 H   0  0  0  0  0  0  0  0  0  0  0  0
  -14.0609  -24.7691  -27.7514 H   0  0  0  0  0  0  0  0  0  0  0  0
  -13.0771  -24.7611  -25.6212 H   0  0  0  0  0  0  0  0  0  0  0  0
  -12.5240  -23.0770  -25.9113 H   0  0  0  0  0  0  0  0  0  0  0  0
  -13.5880  -23.4444  -24.5114 H   0  0  0  0  0  0  0  0  0  0  0  0
  -13.6455  -14.4462  -29.4602 H   0  0  0  0  0  0  0  0  0  0  0  0
  -13.1103  -15.8817  -28.5227 H   0  0  0  0  0  0  0  0  0  0  0  0
  -14.6803  -15.9129  -29.3949 H   0  0  0  0  0  0  0  0  0  0  0  0
  1  2  2  0  0  0  0
  1  3  1  0  0  0  0
  1 17  1  0  0  0  0
  2  4  1  0  0  0  0
  3  5  2  0  0  0  0
  4  7  2  0  0  0  0
  5  7  1  0  0  0  0
  6  9  2  0  0  0  0
  6 17  1  0  0  0  0
  7  8  1  0  0  0  0
  8 19  1  0  0  0  0
  8 20  1  0  0  0  0
  8 21  1  0  0  0  0
  9 10  1  0  0  0  0
  9 14  1  0  0  0  0
 10 13  2  0  0  0  0
 10 15  1  0  0  0  0
 11 12  1  0  0  0  0
 11 13  1  0  0  0  0
 11 23  1  0  0  0  0
 12 14  2  0  0  0  0
 14 22  1  0  0  0  0
 15 16  1  0  0  0  0
 15 18  2  0  0  0  0
 16 17  2  0  0  0  0
  2 24  1  0  0  0  0
  3 25  1  0  0  0  0
  4 26  1  0  0  0  0
  5 27  1  0  0  0  0
 11 28  1  0  0  0  0
 12 29  1  0  0  0  0
 13 30  1  0  0  0  0
 19 31  1  0  0  0  0
 19 32  1  0  0  0  0
 19 33  1  0  0  0  0
 20 34  1  0  0  0  0
 21 35  1  0  0  0  0
 21 36  1  0  0  0  0
 21 37  1  0  0  0  0
 22 38  1  0  0  0  0
 22 39  1  0  0  0  0
 22 40  1  0  0  0  0
M  END
> <Name>
5m

> <IC50[nM]>
0.5

$$$$
5m
  -OEChem-05192314333D
 Structure written by MMmdl.
 40 42  0     1  0  0  0  0  0999 V2000
  -15.3524  -19.2206  -25.9684 C   0  0  0  0  0  0  0  0  0  0  0  0
  -14.6526  -19.7081  -27.0823 C   0  0  0  0  0  0  0  0  0  0  0  0
  -15.8555  -20.1235  -25.0241 C   0  0  0  0  0  0  0  0  0  0  0  0
  -14.4541  -21.0636  -27.2485 C   0  0  0  0  0  0  0  0  0  0  0  0
  -15.6357  -21.4854  -25.1840 C   0  0  0  0  0  0  0  0  0  0  0  0
  -15.0526  -16.9445  -26.6871 N   0  0  0  0  0  0  0  0  0  0  0  0
  -14.9347  -21.9631  -26.2988 C   0  0  0  0  0  0  0  0  0  0  0  0
  -14.5888  -23.4446  -26.4247 C   0  0  0  0  0  0  0  0  0  0  0  0
  -15.2162  -15.5610  -26.5929 C   0  0  0  0  0  0  0  0  0  0  0  0
  -15.9031  -15.0059  -25.5037 C   0  0  0  0  0  0  0  0  0  0  0  0
  -15.4462  -12.8187  -26.3599 C   0  0  0  0  0  0  0  0  0  0  0  0
  -14.7773  -13.3552  -27.4525 C   0  0  0  0  0  0  0  0  0  0  0  0
  -16.0203  -13.6235  -25.3815 C   0  0  0  0  0  0  0  0  0  0  0  0
  -14.6768  -14.7359  -27.5934 C   0  0  3  0  0  0  0  0  0  0  0  0
  -16.5313  -15.9392  -24.4895 C   0  0  0  0  0  0  0  0  0  0  0  0
  -16.2584  -17.2435  -24.7671 N   0  0  0  0  0  0  0  0  0  0  0  0
  -15.5317  -17.7669  -25.8203 C   0  0  0  0  0  0  0  0  0  0  0  0
  -17.2406  -15.6098  -23.5374 O   0  0  0  0  0  0  0  0  0  0  0  0
  -15.7674  -24.3602  -26.0940 C   0  0  0  0  0  0  0  0  0  0  0  0
  -14.2652  -23.8414  -27.7410 O   0  0  0  0  0  0  0  0  0  0  0  0
  -13.3585  -23.6997  -25.5565 C   0  0  0  0  0  0  0  0  0  0  0  0
  -13.9802  -15.2817  -28.8279 C   0  0  0  0  0  0  0  0  0  0  0  0
  -15.5606  -11.4961  -26.2801 F   0  0  0  0  0  0  0  0  0  0  0  0
  -14.2658  -19.0165  -27.8162 H   0  0  0  0  0  0  0  0  0  0  0  0
  -16.4134  -19.7617  -24.1731 H   0  0  0  0  0  0  0  0  0  0  0  0
  -13.9251  -21.4282  -28.1166 H   0  0  0  0  0  0  0  0  0  0  0  0
  -16.0072  -22.1799  -24.4450 H   0  0  0  0  0  0  0  0  0  0  0  0
  -14.3362  -12.7023  -28.1911 H   0  0  0  0  0  0  0  0  0  0  0  0
  -16.5455  -13.1860  -24.5453 H   0  0  0  0  0  0  0  0  0  0  0  0
  -15.6384  -14.7526  -28.1273 H   0  0  0  0  0  0  0  0  0  0  0  0
  -15.4582  -25.4103  -26.2020 H   0  0  0  0  0  0  0  0  0  0  0  0
  -16.0934  -24.1787  -25.0592 H   0  0  0  0  0  0  0  0  0  0  0  0
  -16.5991  -24.1503  -26.7827 H   0  0  0  0  0  0  0  0  0  0  0  0
  -14.0609  -24.7691  -27.7514 H   0  0  0  0  0  0  0  0  0  0  0  0
  -13.0771  -24.7611  -25.6212 H   0  0  0  0  0  0  0  0  0  0  0  0
  -12.5240  -23.0770  -25.9113 H   0  0  0  0  0  0  0  0  0  0  0  0
  -13.5880  -23.4444  -24.5114 H   0  0  0  0  0  0  0  0  0  0  0  0
  -13.6455  -14.4462  -29.4602 H   0  0  0  0  0  0  0  0  0  0  0  0
  -13.1103  -15.8817  -28.5227 H   0  0  0  0  0  0  0  0  0  0  0  0
  -14.6803  -15.9129  -29.3949 H   0  0  0  0  0  0  0  0  0  0  0  0
  1  2  2  0  0  0  0
  1  3  1  0  0  0  0
  1 17  1  0  0  0  0
  2  4  1  0  0  0  0
  3  5  2  0  0  0  0
  4  7  2  0  0  0  0
  5  7  1  0  0  0  0
  6  9  2  0  0  0  0
  6 17  1  0  0  0  0
  7  8  1  0  0  0  0
  8 19  1  0  0  0  0
  8 20  1  0  0  0  0
  8 21  1  0  0  0  0
  9 10  1  0  0  0  0
  9 14  1  0  0  0  0
 10 13  2  0  0  0  0
 10 15  1  0  0  0  0
 11 12  2  0  0  0  0
 11 13  1  0  0  0  0
 11 23  1  0  0  0  0
 12 14  1  0  0  0  0
 14 22  1  0  0  0  0
 15 16  1  0  0  0  0
 15 18  2  0  0  0  0
 16 17  2  0  0  0  0
  2 24  1  0  0  0  0
  3 25  1  0  0  0  0
  4 26  1  0  0  0  0
  5 27  1  0  0  0  0
 12 28  1  0  0  0  0
 13 29  1  0  0  0  0
 14 30  1  0  0  0  0
 19 31  1  0  0  0  0
 19 32  1  0  0  0  0
 19 33  1  0  0  0  0
 20 34  1  0  0  0  0
 21 35  1  0  0  0  0
 21 36  1  0  0  0  0
 21 37  1  0  0  0  0
 22 38  1  0  0  0  0
 22 39  1  0  0  0  0
 22 40  1  0  0  0  0
M  END
> <Name>
5m

> <IC50[nM]>
0.5

$$$$
5m
  -OEChem-05192314333D
 Structure written by MMmdl.
 40 42  0     1  0  0  0  0  0999 V2000
  -15.3524  -19.2206  -25.9684 C   0  0  0  0  0  0  0  0  0  0  0  0
  -14.6526  -19.7081  -27.0823 C   0  0  0  0  0  0  0  0  0  0  0  0
  -15.8555  -20.1235  -25.0241 C   0  0  0  0  0  0  0  0  0  0  0  0
  -14.4541  -21.0636  -27.2485 C   0  0  0  0  0  0  0  0  0  0  0  0
  -15.6357  -21.4854  -25.1840 C   0  0  0  0  0  0  0  0  0  0  0  0
  -15.0526  -16.9445  -26.6871 N   0  0  0  0  0  0  0  0  0  0  0  0
  -14.9347  -21.9631  -26.2988 C   0  0  0  0  0  0  0  0  0  0  0  0
  -14.5888  -23.4446  -26.4247 C   0  0  0  0  0  0  0  0  0  0  0  0
  -15.2162  -15.5610  -26.5929 C   0  0  0  0  0  0  0  0  0  0  0  0
  -15.9031  -15.0059  -25.5037 C   0  0  3  0  0  0  0  0  0  0  0  0
  -15.4462  -12.8187  -26.3599 C   0  0  0  0  0  0  0  0  0  0  0  0
  -14.7773  -13.3552  -27.4525 C   0  0  0  0  0  0  0  0  0  0  0  0
  -16.0203  -13.6235  -25.3815 C   0  0  0  0  0  0  0  0  0  0  0  0
  -14.6768  -14.7359  -27.5934 C   0  0  0  0  0  0  0  0  0  0  0  0
  -16.5313  -15.9392  -24.4895 C   0  0  0  0  0  0  0  0  0  0  0  0
  -16.2584  -17.2435  -24.7671 N   0  0  0  0  0  0  0  0  0  0  0  0
  -15.5317  -17.7669  -25.8203 C   0  0  0  0  0  0  0  0  0  0  0  0
  -17.2406  -15.6098  -23.5374 O   0  0  0  0  0  0  0  0  0  0  0  0
  -15.7674  -24.3602  -26.0940 C   0  0  0  0  0  0  0  0  0  0  0  0
  -14.2652  -23.8414  -27.7410 O   0  0  0  0  0  0  0  0  0  0  0  0
  -13.3585  -23.6997  -25.5565 C   0  0  0  0  0  0  0  0  0  0  0  0
  -13.9802  -15.2817  -28.8279 C   0  0  0  0  0  0  0  0  0  0  0  0
  -15.5606  -11.4961  -26.2801 F   0  0  0  0  0  0  0  0  0  0  0  0
  -14.2658  -19.0165  -27.8162 H   0  0  0  0  0  0  0  0  0  0  0  0
  -16.4134  -19.7617  -24.1731 H   0  0  0  0  0  0  0  0  0  0  0  0
  -13.9251  -21.4282  -28.1166 H   0  0  0  0  0  0  0  0  0  0  0  0
  -16.0072  -22.1799  -24.4450 H   0  0  0  0  0  0  0  0  0  0  0  0
  -14.9722  -14.9857  -24.9180 H   0  0  0  0  0  0  0  0  0  0  0  0
  -14.3362  -12.7023  -28.1911 H   0  0  0  0  0  0  0  0  0  0  0  0
  -16.5455  -13.1860  -24.5453 H   0  0  0  0  0  0  0  0  0  0  0  0
  -15.4582  -25.4103  -26.2020 H   0  0  0  0  0  0  0  0  0  0  0  0
  -16.0934  -24.1787  -25.0592 H   0  0  0  0  0  0  0  0  0  0  0  0
  -16.5991  -24.1503  -26.7827 H   0  0  0  0  0  0  0  0  0  0  0  0
  -14.0609  -24.7691  -27.7514 H   0  0  0  0  0  0  0  0  0  0  0  0
  -13.0771  -24.7611  -25.6212 H   0  0  0  0  0  0  0  0  0  0  0  0
  -12.5240  -23.0770  -25.9113 H   0  0  0  0  0  0  0  0  0  0  0  0
  -13.5880  -23.4444  -24.5114 H   0  0  0  0  0  0  0  0  0  0  0  0
  -13.6455  -14.4462  -29.4602 H   0  0  0  0  0  0  0  0  0  0  0  0
  -13.1103  -15.8817  -28.5227 H   0  0  0  0  0  0  0  0  0  0  0  0
  -14.6803  -15.9129  -29.3949 H   0  0  0  0  0  0  0  0  0  0  0  0
  1  2  2  0  0  0  0
  1  3  1  0  0  0  0
  1 17  1  0  0  0  0
  2  4  1  0  0  0  0
  3  5  2  0  0  0  0
  4  7  2  0  0  0  0
  5  7  1  0  0  0  0
  6  9  2  0  0  0  0
  6 17  1  0  0  0  0
  7  8  1  0  0  0  0
  8 19  1  0  0  0  0
  8 20  1  0  0  0  0
  8 21  1  0  0  0  0
  9 10  1  0  0  0  0
  9 14  1  0  0  0  0
 10 13  1  0  0  0  0
 10 15  1  0  0  0  0
 11 12  1  0  0  0  0
 11 13  2  0  0  0  0
 11 23  1  0  0  0  0
 12 14  2  0  0  0  0
 14 22  1  0  0  0  0
 15 16  1  0  0  0  0
 15 18  2  0  0  0  0
 16 17  2  0  0  0  0
  2 24  1  0  0  0  0
  3 25  1  0  0  0  0
  4 26  1  0  0  0  0
  5 27  1  0  0  0  0
 10 28  1  0  0  0  0
 12 29  1  0  0  0  0
 13 30  1  0  0  0  0
 19 31  1  0  0  0  0
 19 32  1  0  0  0  0
 19 33  1  0  0  0  0
 20 34  1  0  0  0  0
 21 35  1  0  0  0  0
 21 36  1  0  0  0  0
 21 37  1  0  0  0  0
 22 38  1  0  0  0  0
 22 39  1  0  0  0  0
 22 40  1  0  0  0  0
M  END
> <Name>
5m

> <IC50[nM]>
0.5

$$$$
