5n
  -OEChem-05192314333D
 Structure written by MMmdl.
 44 46  0     0  0  0  0  0  0999 V2000
  -15.1971  -19.2586  -25.9604 C   0  0  0  0  0  0  0  0  0  0  0  0
  -15.4619  -20.0875  -24.8625 C   0  0  0  0  0  0  0  0  0  0  0  0
  -14.7320  -19.8457  -27.1467 C   0  0  0  0  0  0  0  0  0  0  0  0
  -15.3732  -17.7885  -25.8846 C   0  0  0  0  0  0  0  0  0  0  0  0
  -15.2356  -21.4582  -24.9463 C   0  0  0  0  0  0  0  0  0  0  0  0
  -14.5189  -21.2175  -27.2320 C   0  0  0  0  0  0  0  0  0  0  0  0
  -14.7643  -22.0441  -26.1317 C   0  0  0  0  0  0  0  0  0  0  0  0
  -16.1228  -17.2312  -24.8599 N   0  0  0  0  0  0  0  0  0  0  0  0
  -16.3920  -15.9186  -24.6105 C   0  0  0  0  0  0  0  0  0  0  0  0
  -14.8661  -16.9841  -26.7605 N   0  0  0  0  0  0  0  0  0  0  0  0
  -15.0231  -15.5933  -26.6800 C   0  0  0  0  0  0  0  0  0  0  0  0
  -15.7490  -15.0059  -25.6350 C   0  0  0  0  0  0  0  0  0  0  0  0
  -15.8668  -13.6148  -25.5520 C   0  0  0  0  0  0  0  0  0  0  0  0
  -15.2558  -12.8198  -26.5261 C   0  0  0  0  0  0  0  0  0  0  0  0
  -14.5498  -13.4080  -27.5783 C   0  0  0  0  0  0  0  0  0  0  0  0
  -14.4351  -14.7960  -27.6619 C   0  0  0  0  0  0  0  0  0  0  0  0
  -17.0983  -15.5613  -23.6650 O   0  0  0  0  0  0  0  0  0  0  0  0
  -14.4776  -23.5653  -26.1895 C   0  0  0  0  0  0  0  0  0  0  0  0
  -15.7149  -24.3179  -25.6602 C   0  0  0  0  0  0  0  0  0  0  0  0
  -13.2176  -23.8359  -25.3472 C   0  0  0  0  0  0  0  0  0  0  0  0
  -14.1517  -23.9464  -27.5429 O   0  0  0  0  0  0  0  0  0  0  0  0
  -15.3497  -11.4734  -26.4630 F   0  0  0  0  0  0  0  0  0  0  0  0
  -14.5501  -25.2004  -28.1255 C   0  0  0  0  0  0  0  0  0  0  0  0
  -13.9103  -26.4874  -27.5451 C   0  0  0  0  0  0  0  0  0  0  0  0
  -12.5968  -26.7509  -28.0034 O   0  0  0  0  0  0  0  0  0  0  0  0
  -15.8435  -19.6608  -23.9467 H   0  0  0  0  0  0  0  0  0  0  0  0
  -14.5364  -19.2228  -28.0070 H   0  0  0  0  0  0  0  0  0  0  0  0
  -15.4258  -22.0814  -24.0850 H   0  0  0  0  0  0  0  0  0  0  0  0
  -14.1609  -21.6475  -28.1558 H   0  0  0  0  0  0  0  0  0  0  0  0
  -16.5212  -17.8827  -24.2143 H   0  0  0  0  0  0  0  0  0  0  0  0
  -16.4229  -13.1604  -24.7454 H   0  0  0  0  0  0  0  0  0  0  0  0
  -14.0902  -12.7849  -28.3312 H   0  0  0  0  0  0  0  0  0  0  0  0
  -13.8954  -15.2494  -28.4802 H   0  0  0  0  0  0  0  0  0  0  0  0
  -15.5281  -25.4014  -25.6943 H   0  0  0  0  0  0  0  0  0  0  0  0
  -15.9133  -24.0127  -24.6222 H   0  0  0  0  0  0  0  0  0  0  0  0
  -16.5865  -24.0763  -26.2863 H   0  0  0  0  0  0  0  0  0  0  0  0
  -12.9861  -24.9111  -25.3677 H   0  0  0  0  0  0  0  0  0  0  0  0
  -12.3705  -23.2706  -25.7629 H   0  0  0  0  0  0  0  0  0  0  0  0
  -13.3957  -23.5191  -24.3090 H   0  0  0  0  0  0  0  0  0  0  0  0
  -15.6399  -25.2896  -28.0052 H   0  0  0  0  0  0  0  0  0  0  0  0
  -14.3014  -25.1614  -29.1963 H   0  0  0  0  0  0  0  0  0  0  0  0
  -13.8786  -26.3909  -26.4498 H   0  0  0  0  0  0  0  0  0  0  0  0
  -14.5473  -27.3411  -27.8197 H   0  0  0  0  0  0  0  0  0  0  0  0
  -12.2764  -27.5514  -27.6046 H   0  0  0  0  0  0  0  0  0  0  0  0
  1  2  2  0  0  0  0
  1  3  1  0  0  0  0
  1  4  1  0  0  0  0
  2  5  1  0  0  0  0
  3  6  2  0  0  0  0
  4  8  1  0  0  0  0
  4 10  2  0  0  0  0
  5  7  2  0  0  0  0
  6  7  1  0  0  0  0
  7 18  1  0  0  0  0
  8  9  1  0  0  0  0
  9 12  1  0  0  0  0
  9 17  2  0  0  0  0
 10 11  1  0  0  0  0
 11 12  2  0  0  0  0
 11 16  1  0  0  0  0
 12 13  1  0  0  0  0
 13 14  2  0  0  0  0
 14 15  1  0  0  0  0
 14 22  1  0  0  0  0
 15 16  2  0  0  0  0
 18 19  1  0  0  0  0
 18 20  1  0  0  0  0
 18 21  1  0  0  0  0
 21 23  1  0  0  0  0
 23 24  1  0  0  0  0
 24 25  1  0  0  0  0
  2 26  1  0  0  0  0
  3 27  1  0  0  0  0
  5 28  1  0  0  0  0
  6 29  1  0  0  0  0
  8 30  1  0  0  0  0
 13 31  1  0  0  0  0
 15 32  1  0  0  0  0
 16 33  1  0  0  0  0
 19 34  1  0  0  0  0
 19 35  1  0  0  0  0
 19 36  1  0  0  0  0
 20 37  1  0  0  0  0
 20 38  1  0  0  0  0
 20 39  1  0  0  0  0
 23 40  1  0  0  0  0
 23 41  1  0  0  0  0
 24 42  1  0  0  0  0
 24 43  1  0  0  0  0
 25 44  1  0  0  0  0
M  END
> <Name>
5n

> <IC50[nM]>
14

$$$$
5n
  -OEChem-05192314333D
 Structure written by MMmdl.
 44 46  0     0  0  0  0  0  0999 V2000
  -15.1971  -19.2586  -25.9604 C   0  0  0  0  0  0  0  0  0  0  0  0
  -15.4619  -20.0875  -24.8625 C   0  0  0  0  0  0  0  0  0  0  0  0
  -14.7320  -19.8457  -27.1467 C   0  0  0  0  0  0  0  0  0  0  0  0
  -15.3732  -17.7885  -25.8846 C   0  0  0  0  0  0  0  0  0  0  0  0
  -15.2356  -21.4582  -24.9463 C   0  0  0  0  0  0  0  0  0  0  0  0
  -14.5189  -21.2175  -27.2320 C   0  0  0  0  0  0  0  0  0  0  0  0
  -14.7643  -22.0441  -26.1317 C   0  0  0  0  0  0  0  0  0  0  0  0
  -16.1228  -17.2312  -24.8599 N   0  0  0  0  0  0  0  0  0  0  0  0
  -16.3920  -15.9186  -24.6105 C   0  0  0  0  0  0  0  0  0  0  0  0
  -14.8661  -16.9841  -26.7605 N   0  0  0  0  0  0  0  0  0  0  0  0
  -15.0231  -15.5933  -26.6800 C   0  0  0  0  0  0  0  0  0  0  0  0
  -15.7490  -15.0059  -25.6350 C   0  0  0  0  0  0  0  0  0  0  0  0
  -15.8668  -13.6148  -25.5520 C   0  0  0  0  0  0  0  0  0  0  0  0
  -15.2558  -12.8198  -26.5261 C   0  0  0  0  0  0  0  0  0  0  0  0
  -14.5498  -13.4080  -27.5783 C   0  0  0  0  0  0  0  0  0  0  0  0
  -14.4351  -14.7960  -27.6619 C   0  0  0  0  0  0  0  0  0  0  0  0
  -17.0983  -15.5613  -23.6650 O   0  0  0  0  0  0  0  0  0  0  0  0
  -14.4776  -23.5653  -26.1895 C   0  0  0  0  0  0  0  0  0  0  0  0
  -15.7149  -24.3179  -25.6602 C   0  0  0  0  0  0  0  0  0  0  0  0
  -13.2176  -23.8359  -25.3472 C   0  0  0  0  0  0  0  0  0  0  0  0
  -14.1517  -23.9464  -27.5429 O   0  0  0  0  0  0  0  0  0  0  0  0
  -15.3497  -11.4734  -26.4630 F   0  0  0  0  0  0  0  0  0  0  0  0
  -14.5501  -25.2004  -28.1255 C   0  0  0  0  0  0  0  0  0  0  0  0
  -13.9103  -26.4874  -27.5451 C   0  0  0  0  0  0  0  0  0  0  0  0
  -12.5968  -26.7509  -28.0034 O   0  0  0  0  0  0  0  0  0  0  0  0
  -15.8435  -19.6608  -23.9467 H   0  0  0  0  0  0  0  0  0  0  0  0
  -14.5364  -19.2228  -28.0070 H   0  0  0  0  0  0  0  0  0  0  0  0
  -15.4258  -22.0814  -24.0850 H   0  0  0  0  0  0  0  0  0  0  0  0
  -14.1609  -21.6475  -28.1558 H   0  0  0  0  0  0  0  0  0  0  0  0
  -14.3436  -17.3674  -27.5221 H   0  0  0  0  0  0  0  0  0  0  0  0
  -16.4229  -13.1604  -24.7454 H   0  0  0  0  0  0  0  0  0  0  0  0
  -14.0902  -12.7849  -28.3312 H   0  0  0  0  0  0  0  0  0  0  0  0
  -13.8954  -15.2494  -28.4802 H   0  0  0  0  0  0  0  0  0  0  0  0
  -15.5281  -25.4014  -25.6943 H   0  0  0  0  0  0  0  0  0  0  0  0
  -15.9133  -24.0127  -24.6222 H   0  0  0  0  0  0  0  0  0  0  0  0
  -16.5865  -24.0763  -26.2863 H   0  0  0  0  0  0  0  0  0  0  0  0
  -12.9861  -24.9111  -25.3677 H   0  0  0  0  0  0  0  0  0  0  0  0
  -12.3705  -23.2706  -25.7629 H   0  0  0  0  0  0  0  0  0  0  0  0
  -13.3957  -23.5191  -24.3090 H   0  0  0  0  0  0  0  0  0  0  0  0
  -15.6399  -25.2896  -28.0052 H   0  0  0  0  0  0  0  0  0  0  0  0
  -14.3014  -25.1614  -29.1963 H   0  0  0  0  0  0  0  0  0  0  0  0
  -13.8786  -26.3909  -26.4498 H   0  0  0  0  0  0  0  0  0  0  0  0
  -14.5473  -27.3411  -27.8197 H   0  0  0  0  0  0  0  0  0  0  0  0
  -12.2764  -27.5514  -27.6046 H   0  0  0  0  0  0  0  0  0  0  0  0
  1  2  2  0  0  0  0
  1  3  1  0  0  0  0
  1  4  1  0  0  0  0
  2  5  1  0  0  0  0
  3  6  2  0  0  0  0
  4  8  2  0  0  0  0
  4 10  1  0  0  0  0
  5  7  2  0  0  0  0
  6  7  1  0  0  0  0
  7 18  1  0  0  0  0
  8  9  1  0  0  0  0
  9 12  1  0  0  0  0
  9 17  2  0  0  0  0
 10 11  1  0  0  0  0
 11 12  2  0  0  0  0
 11 16  1  0  0  0  0
 12 13  1  0  0  0  0
 13 14  2  0  0  0  0
 14 15  1  0  0  0  0
 14 22  1  0  0  0  0
 15 16  2  0  0  0  0
 18 19  1  0  0  0  0
 18 20  1  0  0  0  0
 18 21  1  0  0  0  0
 21 23  1  0  0  0  0
 23 24  1  0  0  0  0
 24 25  1  0  0  0  0
  2 26  1  0  0  0  0
  3 27  1  0  0  0  0
  5 28  1  0  0  0  0
  6 29  1  0  0  0  0
 10 30  1  0  0  0  0
 13 31  1  0  0  0  0
 15 32  1  0  0  0  0
 16 33  1  0  0  0  0
 19 34  1  0  0  0  0
 19 35  1  0  0  0  0
 19 36  1  0  0  0  0
 20 37  1  0  0  0  0
 20 38  1  0  0  0  0
 20 39  1  0  0  0  0
 23 40  1  0  0  0  0
 23 41  1  0  0  0  0
 24 42  1  0  0  0  0
 24 43  1  0  0  0  0
 25 44  1  0  0  0  0
M  END
> <Name>
5n

> <IC50[nM]>
14

$$$$
5n
  -OEChem-05192314333D
 Structure written by MMmdl.
 44 46  0     0  0  0  0  0  0999 V2000
  -15.1971  -19.2586  -25.9604 C   0  0  0  0  0  0  0  0  0  0  0  0
  -15.4619  -20.0875  -24.8625 C   0  0  0  0  0  0  0  0  0  0  0  0
  -14.7320  -19.8457  -27.1467 C   0  0  0  0  0  0  0  0  0  0  0  0
  -15.3732  -17.7885  -25.8846 C   0  0  0  0  0  0  0  0  0  0  0  0
  -15.2356  -21.4582  -24.9463 C   0  0  0  0  0  0  0  0  0  0  0  0
  -14.5189  -21.2175  -27.2320 C   0  0  0  0  0  0  0  0  0  0  0  0
  -14.7643  -22.0441  -26.1317 C   0  0  0  0  0  0  0  0  0  0  0  0
  -16.1228  -17.2312  -24.8599 N   0  0  0  0  0  0  0  0  0  0  0  0
  -16.3920  -15.9186  -24.6105 C   0  0  0  0  0  0  0  0  0  0  0  0
  -14.8661  -16.9841  -26.7605 N   0  0  0  0  0  0  0  0  0  0  0  0
  -15.0231  -15.5933  -26.6800 C   0  0  0  0  0  0  0  0  0  0  0  0
  -15.7490  -15.0059  -25.6350 C   0  0  0  0  0  0  0  0  0  0  0  0
  -15.8668  -13.6148  -25.5520 C   0  0  0  0  0  0  0  0  0  0  0  0
  -15.2558  -12.8198  -26.5261 C   0  0  0  0  0  0  0  0  0  0  0  0
  -14.5498  -13.4080  -27.5783 C   0  0  0  0  0  0  0  0  0  0  0  0
  -14.4351  -14.7960  -27.6619 C   0  0  0  0  0  0  0  0  0  0  0  0
  -17.0983  -15.5613  -23.6650 O   0  0  0  0  0  0  0  0  0  0  0  0
  -14.4776  -23.5653  -26.1895 C   0  0  0  0  0  0  0  0  0  0  0  0
  -15.7149  -24.3179  -25.6602 C   0  0  0  0  0  0  0  0  0  0  0  0
  -13.2176  -23.8359  -25.3472 C   0  0  0  0  0  0  0  0  0  0  0  0
  -14.1517  -23.9464  -27.5429 O   0  0  0  0  0  0  0  0  0  0  0  0
  -15.3497  -11.4734  -26.4630 F   0  0  0  0  0  0  0  0  0  0  0  0
  -14.5501  -25.2004  -28.1255 C   0  0  0  0  0  0  0  0  0  0  0  0
  -13.9103  -26.4874  -27.5451 C   0  0  0  0  0  0  0  0  0  0  0  0
  -12.5968  -26.7509  -28.0034 O   0  0  0  0  0  0  0  0  0  0  0  0
  -15.8435  -19.6608  -23.9467 H   0  0  0  0  0  0  0  0  0  0  0  0
  -14.5364  -19.2228  -28.0070 H   0  0  0  0  0  0  0  0  0  0  0  0
  -15.4258  -22.0814  -24.0850 H   0  0  0  0  0  0  0  0  0  0  0  0
  -14.1609  -21.6475  -28.1558 H   0  0  0  0  0  0  0  0  0  0  0  0
  -16.4229  -13.1604  -24.7454 H   0  0  0  0  0  0  0  0  0  0  0  0
  -14.0902  -12.7849  -28.3312 H   0  0  0  0  0  0  0  0  0  0  0  0
  -13.8954  -15.2494  -28.4802 H   0  0  0  0  0  0  0  0  0  0  0  0
  -17.3937  -16.3251  -23.1835 H   0  0  0  0  0  0  0  0  0  0  0  0
  -15.5281  -25.4014  -25.6943 H   0  0  0  0  0  0  0  0  0  0  0  0
  -15.9133  -24.0127  -24.6222 H   0  0  0  0  0  0  0  0  0  0  0  0
  -16.5865  -24.0763  -26.2863 H   0  0  0  0  0  0  0  0  0  0  0  0
  -12.9861  -24.9111  -25.3677 H   0  0  0  0  0  0  0  0  0  0  0  0
  -12.3705  -23.2706  -25.7629 H   0  0  0  0  0  0  0  0  0  0  0  0
  -13.3957  -23.5191  -24.3090 H   0  0  0  0  0  0  0  0  0  0  0  0
  -15.6399  -25.2896  -28.0052 H   0  0  0  0  0  0  0  0  0  0  0  0
  -14.3014  -25.1614  -29.1963 H   0  0  0  0  0  0  0  0  0  0  0  0
  -13.8786  -26.3909  -26.4498 H   0  0  0  0  0  0  0  0  0  0  0  0
  -14.5473  -27.3411  -27.8197 H   0  0  0  0  0  0  0  0  0  0  0  0
  -12.2764  -27.5514  -27.6046 H   0  0  0  0  0  0  0  0  0  0  0  0
  1  2  2  0  0  0  0
  1  3  1  0  0  0  0
  1  4  1  0  0  0  0
  2  5  1  0  0  0  0
  3  6  2  0  0  0  0
  4  8  2  0  0  0  0
  4 10  1  0  0  0  0
  5  7  2  0  0  0  0
  6  7  1  0  0  0  0
  7 18  1  0  0  0  0
  8  9  1  0  0  0  0
  9 12  2  0  0  0  0
  9 17  1  0  0  0  0
 10 11  2  0  0  0  0
 11 12  1  0  0  0  0
 11 16  1  0  0  0  0
 12 13  1  0  0  0  0
 13 14  2  0  0  0  0
 14 15  1  0  0  0  0
 14 22  1  0  0  0  0
 15 16  2  0  0  0  0
 18 19  1  0  0  0  0
 18 20  1  0  0  0  0
 18 21  1  0  0  0  0
 21 23  1  0  0  0  0
 23 24  1  0  0  0  0
 24 25  1  0  0  0  0
  2 26  1  0  0  0  0
  3 27  1  0  0  0  0
  5 28  1  0  0  0  0
  6 29  1  0  0  0  0
 13 30  1  0  0  0  0
 15 31  1  0  0  0  0
 16 32  1  0  0  0  0
 17 33  1  0  0  0  0
 19 34  1  0  0  0  0
 19 35  1  0  0  0  0
 19 36  1  0  0  0  0
 20 37  1  0  0  0  0
 20 38  1  0  0  0  0
 20 39  1  0  0  0  0
 23 40  1  0  0  0  0
 23 41  1  0  0  0  0
 24 42  1  0  0  0  0
 24 43  1  0  0  0  0
 25 44  1  0  0  0  0
M  END
> <Name>
5n

> <IC50[nM]>
14

$$$$
5n
  -OEChem-05192314333D
 Structure written by MMmdl.
 44 46  0     1  0  0  0  0  0999 V2000
  -15.1971  -19.2586  -25.9604 C   0  0  0  0  0  0  0  0  0  0  0  0
  -15.4619  -20.0875  -24.8625 C   0  0  0  0  0  0  0  0  0  0  0  0
  -14.7320  -19.8457  -27.1467 C   0  0  0  0  0  0  0  0  0  0  0  0
  -15.3732  -17.7885  -25.8846 C   0  0  0  0  0  0  0  0  0  0  0  0
  -15.2356  -21.4582  -24.9463 C   0  0  0  0  0  0  0  0  0  0  0  0
  -14.5189  -21.2175  -27.2320 C   0  0  0  0  0  0  0  0  0  0  0  0
  -14.7643  -22.0441  -26.1317 C   0  0  0  0  0  0  0  0  0  0  0  0
  -16.1228  -17.2312  -24.8599 N   0  0  0  0  0  0  0  0  0  0  0  0
  -16.3920  -15.9186  -24.6105 C   0  0  0  0  0  0  0  0  0  0  0  0
  -14.8661  -16.9841  -26.7605 N   0  0  0  0  0  0  0  0  0  0  0  0
  -15.0231  -15.5933  -26.6800 C   0  0  0  0  0  0  0  0  0  0  0  0
  -15.7490  -15.0059  -25.6350 C   0  0  0  0  0  0  0  0  0  0  0  0
  -15.8668  -13.6148  -25.5520 C   0  0  0  0  0  0  0  0  0  0  0  0
  -15.2558  -12.8198  -26.5261 C   0  0  3  0  0  0  0  0  0  0  0  0
  -14.5498  -13.4080  -27.5783 C   0  0  0  0  0  0  0  0  0  0  0  0
  -14.4351  -14.7960  -27.6619 C   0  0  0  0  0  0  0  0  0  0  0  0
  -17.0983  -15.5613  -23.6650 O   0  0  0  0  0  0  0  0  0  0  0  0
  -14.4776  -23.5653  -26.1895 C   0  0  0  0  0  0  0  0  0  0  0  0
  -15.7149  -24.3179  -25.6602 C   0  0  0  0  0  0  0  0  0  0  0  0
  -13.2176  -23.8359  -25.3472 C   0  0  0  0  0  0  0  0  0  0  0  0
  -14.1517  -23.9464  -27.5429 O   0  0  0  0  0  0  0  0  0  0  0  0
  -15.3497  -11.4734  -26.4630 F   0  0  0  0  0  0  0  0  0  0  0  0
  -14.5501  -25.2004  -28.1255 C   0  0  0  0  0  0  0  0  0  0  0  0
  -13.9103  -26.4874  -27.5451 C   0  0  0  0  0  0  0  0  0  0  0  0
  -12.5968  -26.7509  -28.0034 O   0  0  0  0  0  0  0  0  0  0  0  0
  -15.8435  -19.6608  -23.9467 H   0  0  0  0  0  0  0  0  0  0  0  0
  -14.5364  -19.2228  -28.0070 H   0  0  0  0  0  0  0  0  0  0  0  0
  -15.4258  -22.0814  -24.0850 H   0  0  0  0  0  0  0  0  0  0  0  0
  -14.1609  -21.6475  -28.1558 H   0  0  0  0  0  0  0  0  0  0  0  0
  -16.4229  -13.1604  -24.7454 H   0  0  0  0  0  0  0  0  0  0  0  0
  -14.3355  -12.7861  -25.9245 H   0  0  0  0  0  0  0  0  0  0  0  0
  -14.0902  -12.7849  -28.3312 H   0  0  0  0  0  0  0  0  0  0  0  0
  -13.8954  -15.2494  -28.4802 H   0  0  0  0  0  0  0  0  0  0  0  0
  -15.5281  -25.4014  -25.6943 H   0  0  0  0  0  0  0  0  0  0  0  0
  -15.9133  -24.0127  -24.6222 H   0  0  0  0  0  0  0  0  0  0  0  0
  -16.5865  -24.0763  -26.2863 H   0  0  0  0  0  0  0  0  0  0  0  0
  -12.9861  -24.9111  -25.3677 H   0  0  0  0  0  0  0  0  0  0  0  0
  -12.3705  -23.2706  -25.7629 H   0  0  0  0  0  0  0  0  0  0  0  0
  -13.3957  -23.5191  -24.3090 H   0  0  0  0  0  0  0  0  0  0  0  0
  -15.6399  -25.2896  -28.0052 H   0  0  0  0  0  0  0  0  0  0  0  0
  -14.3014  -25.1614  -29.1963 H   0  0  0  0  0  0  0  0  0  0  0  0
  -13.8786  -26.3909  -26.4498 H   0  0  0  0  0  0  0  0  0  0  0  0
  -14.5473  -27.3411  -27.8197 H   0  0  0  0  0  0  0  0  0  0  0  0
  -12.2764  -27.5514  -27.6046 H   0  0  0  0  0  0  0  0  0  0  0  0
  1  2  2  0  0  0  0
  1  3  1  0  0  0  0
  1  4  1  0  0  0  0
  2  5  1  0  0  0  0
  3  6  2  0  0  0  0
  4  8  2  0  0  0  0
  4 10  1  0  0  0  0
  5  7  2  0  0  0  0
  6  7  1  0  0  0  0
  7 18  1  0  0  0  0
  8  9  1  0  0  0  0
  9 12  1  0  0  0  0
  9 17  2  0  0  0  0
 10 11  2  0  0  0  0
 11 12  1  0  0  0  0
 11 16  1  0  0  0  0
 12 13  2  0  0  0  0
 13 14  1  0  0  0  0
 14 15  1  0  0  0  0
 14 22  1  0  0  0  0
 15 16  2  0  0  0  0
 18 19  1  0  0  0  0
 18 20  1  0  0  0  0
 18 21  1  0  0  0  0
 21 23  1  0  0  0  0
 23 24  1  0  0  0  0
 24 25  1  0  0  0  0
  2 26  1  0  0  0  0
  3 27  1  0  0  0  0
  5 28  1  0  0  0  0
  6 29  1  0  0  0  0
 13 30  1  0  0  0  0
 14 31  1  0  0  0  0
 15 32  1  0  0  0  0
 16 33  1  0  0  0  0
 19 34  1  0  0  0  0
 19 35  1  0  0  0  0
 19 36  1  0  0  0  0
 20 37  1  0  0  0  0
 20 38  1  0  0  0  0
 20 39  1  0  0  0  0
 23 40  1  0  0  0  0
 23 41  1  0  0  0  0
 24 42  1  0  0  0  0
 24 43  1  0  0  0  0
 25 44  1  0  0  0  0
M  END
> <Name>
5n

> <IC50[nM]>
14

$$$$
5n
  -OEChem-05192314333D
 Structure written by MMmdl.
 44 46  0     1  0  0  0  0  0999 V2000
  -15.1971  -19.2586  -25.9604 C   0  0  0  0  0  0  0  0  0  0  0  0
  -15.4619  -20.0875  -24.8625 C   0  0  0  0  0  0  0  0  0  0  0  0
  -14.7320  -19.8457  -27.1467 C   0  0  0  0  0  0  0  0  0  0  0  0
  -15.3732  -17.7885  -25.8846 C   0  0  0  0  0  0  0  0  0  0  0  0
  -15.2356  -21.4582  -24.9463 C   0  0  0  0  0  0  0  0  0  0  0  0
  -14.5189  -21.2175  -27.2320 C   0  0  0  0  0  0  0  0  0  0  0  0
  -14.7643  -22.0441  -26.1317 C   0  0  0  0  0  0  0  0  0  0  0  0
  -16.1228  -17.2312  -24.8599 N   0  0  0  0  0  0  0  0  0  0  0  0
  -16.3920  -15.9186  -24.6105 C   0  0  0  0  0  0  0  0  0  0  0  0
  -14.8661  -16.9841  -26.7605 N   0  0  0  0  0  0  0  0  0  0  0  0
  -15.0231  -15.5933  -26.6800 C   0  0  0  0  0  0  0  0  0  0  0  0
  -15.7490  -15.0059  -25.6350 C   0  0  3  0  0  0  0  0  0  0  0  0
  -15.8668  -13.6148  -25.5520 C   0  0  0  0  0  0  0  0  0  0  0  0
  -15.2558  -12.8198  -26.5261 C   0  0  0  0  0  0  0  0  0  0  0  0
  -14.5498  -13.4080  -27.5783 C   0  0  0  0  0  0  0  0  0  0  0  0
  -14.4351  -14.7960  -27.6619 C   0  0  0  0  0  0  0  0  0  0  0  0
  -17.0983  -15.5613  -23.6650 O   0  0  0  0  0  0  0  0  0  0  0  0
  -14.4776  -23.5653  -26.1895 C   0  0  0  0  0  0  0  0  0  0  0  0
  -15.7149  -24.3179  -25.6602 C   0  0  0  0  0  0  0  0  0  0  0  0
  -13.2176  -23.8359  -25.3472 C   0  0  0  0  0  0  0  0  0  0  0  0
  -14.1517  -23.9464  -27.5429 O   0  0  0  0  0  0  0  0  0  0  0  0
  -15.3497  -11.4734  -26.4630 F   0  0  0  0  0  0  0  0  0  0  0  0
  -14.5501  -25.2004  -28.1255 C   0  0  0  0  0  0  0  0  0  0  0  0
  -13.9103  -26.4874  -27.5451 C   0  0  0  0  0  0  0  0  0  0  0  0
  -12.5968  -26.7509  -28.0034 O   0  0  0  0  0  0  0  0  0  0  0  0
  -15.8435  -19.6608  -23.9467 H   0  0  0  0  0  0  0  0  0  0  0  0
  -14.5364  -19.2228  -28.0070 H   0  0  0  0  0  0  0  0  0  0  0  0
  -15.4258  -22.0814  -24.0850 H   0  0  0  0  0  0  0  0  0  0  0  0
  -14.1609  -21.6475  -28.1558 H   0  0  0  0  0  0  0  0  0  0  0  0
  -16.6628  -15.0473  -26.2459 H   0  0  0  0  0  0  0  0  0  0  0  0
  -16.4229  -13.1604  -24.7454 H   0  0  0  0  0  0  0  0  0  0  0  0
  -14.0902  -12.7849  -28.3312 H   0  0  0  0  0  0  0  0  0  0  0  0
  -13.8954  -15.2494  -28.4802 H   0  0  0  0  0  0  0  0  0  0  0  0
  -15.5281  -25.4014  -25.6943 H   0  0  0  0  0  0  0  0  0  0  0  0
  -15.9133  -24.0127  -24.6222 H   0  0  0  0  0  0  0  0  0  0  0  0
  -16.5865  -24.0763  -26.2863 H   0  0  0  0  0  0  0  0  0  0  0  0
  -12.9861  -24.9111  -25.3677 H   0  0  0  0  0  0  0  0  0  0  0  0
  -12.3705  -23.2706  -25.7629 H   0  0  0  0  0  0  0  0  0  0  0  0
  -13.3957  -23.5191  -24.3090 H   0  0  0  0  0  0  0  0  0  0  0  0
  -15.6399  -25.2896  -28.0052 H   0  0  0  0  0  0  0  0  0  0  0  0
  -14.3014  -25.1614  -29.1963 H   0  0  0  0  0  0  0  0  0  0  0  0
  -13.8786  -26.3909  -26.4498 H   0  0  0  0  0  0  0  0  0  0  0  0
  -14.5473  -27.3411  -27.8197 H   0  0  0  0  0  0  0  0  0  0  0  0
  -12.2764  -27.5514  -27.6046 H   0  0  0  0  0  0  0  0  0  0  0  0
  1  2  2  0  0  0  0
  1  3  1  0  0  0  0
  1  4  1  0  0  0  0
  2  5  1  0  0  0  0
  3  6  2  0  0  0  0
  4  8  2  0  0  0  0
  4 10  1  0  0  0  0
  5  7  2  0  0  0  0
  6  7  1  0  0  0  0
  7 18  1  0  0  0  0
  8  9  1  0  0  0  0
  9 12  1  0  0  0  0
  9 17  2  0  0  0  0
 10 11  2  0  0  0  0
 11 12  1  0  0  0  0
 11 16  1  0  0  0  0
 12 13  1  0  0  0  0
 13 14  2  0  0  0  0
 14 15  1  0  0  0  0
 14 22  1  0  0  0  0
 15 16  2  0  0  0  0
 18 19  1  0  0  0  0
 18 20  1  0  0  0  0
 18 21  1  0  0  0  0
 21 23  1  0  0  0  0
 23 24  1  0  0  0  0
 24 25  1  0  0  0  0
  2 26  1  0  0  0  0
  3 27  1  0  0  0  0
  5 28  1  0  0  0  0
  6 29  1  0  0  0  0
 12 30  1  0  0  0  0
 13 31  1  0  0  0  0
 15 32  1  0  0  0  0
 16 33  1  0  0  0  0
 19 34  1  0  0  0  0
 19 35  1  0  0  0  0
 19 36  1  0  0  0  0
 20 37  1  0  0  0  0
 20 38  1  0  0  0  0
 20 39  1  0  0  0  0
 23 40  1  0  0  0  0
 23 41  1  0  0  0  0
 24 42  1  0  0  0  0
 24 43  1  0  0  0  0
 25 44  1  0  0  0  0
M  END
> <Name>
5n

> <IC50[nM]>
14

$$$$
5n
  -OEChem-05192314333D
 Structure written by MMmdl.
 44 46  0     0  0  0  0  0  0999 V2000
  -15.1971  -19.2586  -25.9604 C   0  0  0  0  0  0  0  0  0  0  0  0
  -15.4619  -20.0875  -24.8625 C   0  0  0  0  0  0  0  0  0  0  0  0
  -14.7320  -19.8457  -27.1467 C   0  0  0  0  0  0  0  0  0  0  0  0
  -15.3732  -17.7885  -25.8846 C   0  0  0  0  0  0  0  0  0  0  0  0
  -15.2356  -21.4582  -24.9463 C   0  0  0  0  0  0  0  0  0  0  0  0
  -14.5189  -21.2175  -27.2320 C   0  0  0  0  0  0  0  0  0  0  0  0
  -14.7643  -22.0441  -26.1317 C   0  0  0  0  0  0  0  0  0  0  0  0
  -16.1228  -17.2312  -24.8599 N   0  0  0  0  0  0  0  0  0  0  0  0
  -16.3920  -15.9186  -24.6105 C   0  0  0  0  0  0  0  0  0  0  0  0
  -14.8661  -16.9841  -26.7605 N   0  0  0  0  0  0  0  0  0  0  0  0
  -15.0231  -15.5933  -26.6800 C   0  0  0  0  0  0  0  0  0  0  0  0
  -15.7490  -15.0059  -25.6350 C   0  0  0  0  0  0  0  0  0  0  0  0
  -15.8668  -13.6148  -25.5520 C   0  0  0  0  0  0  0  0  0  0  0  0
  -15.2558  -12.8198  -26.5261 C   0  0  0  0  0  0  0  0  0  0  0  0
  -14.5498  -13.4080  -27.5783 C   0  0  0  0  0  0  0  0  0  0  0  0
  -14.4351  -14.7960  -27.6619 C   0  0  0  0  0  0  0  0  0  0  0  0
  -17.0983  -15.5613  -23.6650 O   0  0  0  0  0  0  0  0  0  0  0  0
  -14.4776  -23.5653  -26.1895 C   0  0  0  0  0  0  0  0  0  0  0  0
  -15.7149  -24.3179  -25.6602 C   0  0  0  0  0  0  0  0  0  0  0  0
  -13.2176  -23.8359  -25.3472 C   0  0  0  0  0  0  0  0  0  0  0  0
  -14.1517  -23.9464  -27.5429 O   0  0  0  0  0  0  0  0  0  0  0  0
  -15.3497  -11.4734  -26.4630 F   0  0  0  0  0  0  0  0  0  0  0  0
  -14.5501  -25.2004  -28.1255 C   0  0  0  0  0  0  0  0  0  0  0  0
  -13.9103  -26.4874  -27.5451 C   0  0  0  0  0  0  0  0  0  0  0  0
  -12.5968  -26.7509  -28.0034 O   0  0  0  0  0  0  0  0  0  0  0  0
  -15.8435  -19.6608  -23.9467 H   0  0  0  0  0  0  0  0  0  0  0  0
  -14.5364  -19.2228  -28.0070 H   0  0  0  0  0  0  0  0  0  0  0  0
  -15.4258  -22.0814  -24.0850 H   0  0  0  0  0  0  0  0  0  0  0  0
  -14.1609  -21.6475  -28.1558 H   0  0  0  0  0  0  0  0  0  0  0  0
  -16.4229  -13.1604  -24.7454 H   0  0  0  0  0  0  0  0  0  0  0  0
  -14.0902  -12.7849  -28.3312 H   0  0  0  0  0  0  0  0  0  0  0  0
  -13.3601  -15.0290  -27.6620 H   0  0  0  0  0  0  0  0  0  0  0  0
  -14.8755  -15.0962  -28.6242 H   0  0  0  0  0  0  0  0  0  0  0  0
  -15.5281  -25.4014  -25.6943 H   0  0  0  0  0  0  0  0  0  0  0  0
  -15.9133  -24.0127  -24.6222 H   0  0  0  0  0  0  0  0  0  0  0  0
  -16.5865  -24.0763  -26.2863 H   0  0  0  0  0  0  0  0  0  0  0  0
  -12.9861  -24.9111  -25.3677 H   0  0  0  0  0  0  0  0  0  0  0  0
  -12.3705  -23.2706  -25.7629 H   0  0  0  0  0  0  0  0  0  0  0  0
  -13.3957  -23.5191  -24.3090 H   0  0  0  0  0  0  0  0  0  0  0  0
  -15.6399  -25.2896  -28.0052 H   0  0  0  0  0  0  0  0  0  0  0  0
  -14.3014  -25.1614  -29.1963 H   0  0  0  0  0  0  0  0  0  0  0  0
  -13.8786  -26.3909  -26.4498 H   0  0  0  0  0  0  0  0  0  0  0  0
  -14.5473  -27.3411  -27.8197 H   0  0  0  0  0  0  0  0  0  0  0  0
  -12.2764  -27.5514  -27.6046 H   0  0  0  0  0  0  0  0  0  0  0  0
  1  2  2  0  0  0  0
  1  3  1  0  0  0  0
  1  4  1  0  0  0  0
  2  5  1  0  0  0  0
  3  6  2  0  0  0  0
  4  8  2  0  0  0  0
  4 10  1  0  0  0  0
  5  7  2  0  0  0  0
  6  7  1  0  0  0  0
  7 18  1  0  0  0  0
  8  9  1  0  0  0  0
  9 12  1  0  0  0  0
  9 17  2  0  0  0  0
 10 11  2  0  0  0  0
 11 12  1  0  0  0  0
 11 16  1  0  0  0  0
 12 13  2  0  0  0  0
 13 14  1  0  0  0  0
 14 15  2  0  0  0  0
 14 22  1  0  0  0  0
 15 16  1  0  0  0  0
 18 19  1  0  0  0  0
 18 20  1  0  0  0  0
 18 21  1  0  0  0  0
 21 23  1  0  0  0  0
 23 24  1  0  0  0  0
 24 25  1  0  0  0  0
  2 26  1  0  0  0  0
  3 27  1  0  0  0  0
  5 28  1  0  0  0  0
  6 29  1  0  0  0  0
 13 30  1  0  0  0  0
 15 31  1  0  0  0  0
 16 32  1  0  0  0  0
 16 33  1  0  0  0  0
 19 34  1  0  0  0  0
 19 35  1  0  0  0  0
 19 36  1  0  0  0  0
 20 37  1  0  0  0  0
 20 38  1  0  0  0  0
 20 39  1  0  0  0  0
 23 40  1  0  0  0  0
 23 41  1  0  0  0  0
 24 42  1  0  0  0  0
 24 43  1  0  0  0  0
 25 44  1  0  0  0  0
M  END
> <Name>
5n

> <IC50[nM]>
14

$$$$
