5g
  -OEChem-05192314333D
 Structure written by MMmdl.
 37 39  0     0  0  0  0  0  0999 V2000
  -14.5341  -14.6449  -27.5575 C   0  0  0  0  0  0  0  0  0  0  0  0
  -15.0978  -15.5129  -26.6098 C   0  0  0  0  0  0  0  0  0  0  0  0
  -14.6077  -13.2658  -27.3516 C   0  0  0  0  0  0  0  0  0  0  0  0
  -15.7922  -14.9870  -25.5133 C   0  0  0  0  0  0  0  0  0  0  0  0
  -14.9372  -16.9036  -26.7424 N   0  0  0  0  0  0  0  0  0  0  0  0
  -15.2582  -12.7538  -26.2292 C   0  0  0  0  0  0  0  0  0  0  0  0
  -15.8700  -13.6113  -25.3131 C   0  0  0  0  0  0  0  0  0  0  0  0
  -16.4499  -15.9479  -24.5524 C   0  0  0  0  0  0  0  0  0  0  0  0
  -16.1281  -17.2371  -24.8190 N   0  0  0  0  0  0  0  0  0  0  0  0
  -17.2230  -15.6491  -23.6483 O   0  0  0  0  0  0  0  0  0  0  0  0
  -15.4171  -17.7439  -25.8846 C   0  0  0  0  0  0  0  0  0  0  0  0
  -15.2774  -19.2043  -26.0251 C   0  0  0  0  0  0  0  0  0  0  0  0
  -14.6087  -19.7171  -27.1419 C   0  0  0  0  0  0  0  0  0  0  0  0
  -14.4337  -21.0811  -27.2917 C   0  0  0  0  0  0  0  0  0  0  0  0
  -14.9292  -21.9658  -26.3338 C   0  0  0  0  0  0  0  0  0  0  0  0
  -15.6249  -21.4650  -25.2296 C   0  0  0  0  0  0  0  0  0  0  0  0
  -15.7964  -20.0948  -25.0737 C   0  0  0  0  0  0  0  0  0  0  0  0
  -14.5885  -23.4535  -26.4129 C   0  0  0  0  0  0  0  0  0  0  0  0
  -14.2371  -23.8914  -27.6993 O   0  0  0  0  0  0  0  0  0  0  0  0
  -15.7678  -24.3783  -26.0824 C   0  0  0  0  0  0  0  0  0  0  0  0
  -13.3532  -23.6779  -25.5405 C   0  0  0  0  0  0  0  0  0  0  0  0
  -13.7154  -15.2314  -28.9661 Cl  0  0  0  0  0  0  0  0  0  0  0  0
  -14.1583  -12.5917  -28.0657 H   0  0  0  0  0  0  0  0  0  0  0  0
  -15.2888  -11.6864  -26.0676 H   0  0  0  0  0  0  0  0  0  0  0  0
  -16.3974  -13.2124  -24.4592 H   0  0  0  0  0  0  0  0  0  0  0  0
  -16.4497  -17.9104  -24.1533 H   0  0  0  0  0  0  0  0  0  0  0  0
  -14.2259  -19.0424  -27.8933 H   0  0  0  0  0  0  0  0  0  0  0  0
  -13.9102  -21.4634  -28.1556 H   0  0  0  0  0  0  0  0  0  0  0  0
  -16.0304  -22.1452  -24.4952 H   0  0  0  0  0  0  0  0  0  0  0  0
  -16.3315  -19.7140  -24.2164 H   0  0  0  0  0  0  0  0  0  0  0  0
  -14.0390  -24.8202  -27.6750 H   0  0  0  0  0  0  0  0  0  0  0  0
  -15.4452  -25.4270  -26.1607 H   0  0  0  0  0  0  0  0  0  0  0  0
  -16.1155  -24.1772  -25.0583 H   0  0  0  0  0  0  0  0  0  0  0  0
  -16.5884  -24.1934  -26.7912 H   0  0  0  0  0  0  0  0  0  0  0  0
  -13.0719  -24.7410  -25.5688 H   0  0  0  0  0  0  0  0  0  0  0  0
  -12.5203  -23.0681  -25.9206 H   0  0  0  0  0  0  0  0  0  0  0  0
  -13.5784  -23.3857  -24.5042 H   0  0  0  0  0  0  0  0  0  0  0  0
  1  2  2  0  0  0  0
  1  3  1  0  0  0  0
  1 22  1  0  0  0  0
  2  4  1  0  0  0  0
  2  5  1  0  0  0  0
  3  6  2  0  0  0  0
  4  7  2  0  0  0  0
  4  8  1  0  0  0  0
  5 11  2  0  0  0  0
  6  7  1  0  0  0  0
  8  9  1  0  0  0  0
  8 10  2  0  0  0  0
  9 11  1  0  0  0  0
 11 12  1  0  0  0  0
 12 13  2  0  0  0  0
 12 17  1  0  0  0  0
 13 14  1  0  0  0  0
 14 15  2  0  0  0  0
 15 16  1  0  0  0  0
 15 18  1  0  0  0  0
 16 17  2  0  0  0  0
 18 19  1  0  0  0  0
 18 20  1  0  0  0  0
 18 21  1  0  0  0  0
  3 23  1  0  0  0  0
  6 24  1  0  0  0  0
  7 25  1  0  0  0  0
  9 26  1  0  0  0  0
 13 27  1  0  0  0  0
 14 28  1  0  0  0  0
 16 29  1  0  0  0  0
 17 30  1  0  0  0  0
 19 31  1  0  0  0  0
 20 32  1  0  0  0  0
 20 33  1  0  0  0  0
 20 34  1  0  0  0  0
 21 35  1  0  0  0  0
 21 36  1  0  0  0  0
 21 37  1  0  0  0  0
M  END
> <Name>
5g

> <IC50[nM]>
12

$$$$
5g
  -OEChem-05192314333D
 Structure written by MMmdl.
 37 39  0     0  0  0  0  0  0999 V2000
  -14.5341  -14.6449  -27.5575 C   0  0  0  0  0  0  0  0  0  0  0  0
  -15.0978  -15.5129  -26.6098 C   0  0  0  0  0  0  0  0  0  0  0  0
  -14.6077  -13.2658  -27.3516 C   0  0  0  0  0  0  0  0  0  0  0  0
  -15.7922  -14.9870  -25.5133 C   0  0  0  0  0  0  0  0  0  0  0  0
  -14.9372  -16.9036  -26.7424 N   0  0  0  0  0  0  0  0  0  0  0  0
  -15.2582  -12.7538  -26.2292 C   0  0  0  0  0  0  0  0  0  0  0  0
  -15.8700  -13.6113  -25.3131 C   0  0  0  0  0  0  0  0  0  0  0  0
  -16.4499  -15.9479  -24.5524 C   0  0  0  0  0  0  0  0  0  0  0  0
  -16.1281  -17.2371  -24.8190 N   0  0  0  0  0  0  0  0  0  0  0  0
  -17.2230  -15.6491  -23.6483 O   0  0  0  0  0  0  0  0  0  0  0  0
  -15.4171  -17.7439  -25.8846 C   0  0  0  0  0  0  0  0  0  0  0  0
  -15.2774  -19.2043  -26.0251 C   0  0  0  0  0  0  0  0  0  0  0  0
  -14.6087  -19.7171  -27.1419 C   0  0  0  0  0  0  0  0  0  0  0  0
  -14.4337  -21.0811  -27.2917 C   0  0  0  0  0  0  0  0  0  0  0  0
  -14.9292  -21.9658  -26.3338 C   0  0  0  0  0  0  0  0  0  0  0  0
  -15.6249  -21.4650  -25.2296 C   0  0  0  0  0  0  0  0  0  0  0  0
  -15.7964  -20.0948  -25.0737 C   0  0  0  0  0  0  0  0  0  0  0  0
  -14.5885  -23.4535  -26.4129 C   0  0  0  0  0  0  0  0  0  0  0  0
  -14.2371  -23.8914  -27.6993 O   0  0  0  0  0  0  0  0  0  0  0  0
  -15.7678  -24.3783  -26.0824 C   0  0  0  0  0  0  0  0  0  0  0  0
  -13.3532  -23.6779  -25.5405 C   0  0  0  0  0  0  0  0  0  0  0  0
  -13.7154  -15.2314  -28.9661 Cl  0  0  0  0  0  0  0  0  0  0  0  0
  -14.1583  -12.5917  -28.0657 H   0  0  0  0  0  0  0  0  0  0  0  0
  -14.4325  -17.2563  -27.5303 H   0  0  0  0  0  0  0  0  0  0  0  0
  -15.2888  -11.6864  -26.0676 H   0  0  0  0  0  0  0  0  0  0  0  0
  -16.3974  -13.2124  -24.4592 H   0  0  0  0  0  0  0  0  0  0  0  0
  -14.2259  -19.0424  -27.8933 H   0  0  0  0  0  0  0  0  0  0  0  0
  -13.9102  -21.4634  -28.1556 H   0  0  0  0  0  0  0  0  0  0  0  0
  -16.0304  -22.1452  -24.4952 H   0  0  0  0  0  0  0  0  0  0  0  0
  -16.3315  -19.7140  -24.2164 H   0  0  0  0  0  0  0  0  0  0  0  0
  -14.0390  -24.8202  -27.6750 H   0  0  0  0  0  0  0  0  0  0  0  0
  -15.4452  -25.4270  -26.1607 H   0  0  0  0  0  0  0  0  0  0  0  0
  -16.1155  -24.1772  -25.0583 H   0  0  0  0  0  0  0  0  0  0  0  0
  -16.5884  -24.1934  -26.7912 H   0  0  0  0  0  0  0  0  0  0  0  0
  -13.0719  -24.7410  -25.5688 H   0  0  0  0  0  0  0  0  0  0  0  0
  -12.5203  -23.0681  -25.9206 H   0  0  0  0  0  0  0  0  0  0  0  0
  -13.5784  -23.3857  -24.5042 H   0  0  0  0  0  0  0  0  0  0  0  0
  1  2  2  0  0  0  0
  1  3  1  0  0  0  0
  1 22  1  0  0  0  0
  2  4  1  0  0  0  0
  2  5  1  0  0  0  0
  3  6  2  0  0  0  0
  4  7  2  0  0  0  0
  4  8  1  0  0  0  0
  5 11  1  0  0  0  0
  6  7  1  0  0  0  0
  8  9  1  0  0  0  0
  8 10  2  0  0  0  0
  9 11  2  0  0  0  0
 11 12  1  0  0  0  0
 12 13  2  0  0  0  0
 12 17  1  0  0  0  0
 13 14  1  0  0  0  0
 14 15  2  0  0  0  0
 15 16  1  0  0  0  0
 15 18  1  0  0  0  0
 16 17  2  0  0  0  0
 18 19  1  0  0  0  0
 18 20  1  0  0  0  0
 18 21  1  0  0  0  0
  3 23  1  0  0  0  0
  5 24  1  0  0  0  0
  6 25  1  0  0  0  0
  7 26  1  0  0  0  0
 13 27  1  0  0  0  0
 14 28  1  0  0  0  0
 16 29  1  0  0  0  0
 17 30  1  0  0  0  0
 19 31  1  0  0  0  0
 20 32  1  0  0  0  0
 20 33  1  0  0  0  0
 20 34  1  0  0  0  0
 21 35  1  0  0  0  0
 21 36  1  0  0  0  0
 21 37  1  0  0  0  0
M  END
> <Name>
5g

> <IC50[nM]>
12

$$$$
5g
  -OEChem-05192314333D
 Structure written by MMmdl.
 37 39  0     0  0  0  0  0  0999 V2000
  -14.5341  -14.6449  -27.5575 C   0  0  0  0  0  0  0  0  0  0  0  0
  -15.0978  -15.5129  -26.6098 C   0  0  0  0  0  0  0  0  0  0  0  0
  -14.6077  -13.2658  -27.3516 C   0  0  0  0  0  0  0  0  0  0  0  0
  -15.7922  -14.9870  -25.5133 C   0  0  0  0  0  0  0  0  0  0  0  0
  -14.9372  -16.9036  -26.7424 N   0  0  0  0  0  0  0  0  0  0  0  0
  -15.2582  -12.7538  -26.2292 C   0  0  0  0  0  0  0  0  0  0  0  0
  -15.8700  -13.6113  -25.3131 C   0  0  0  0  0  0  0  0  0  0  0  0
  -16.4499  -15.9479  -24.5524 C   0  0  0  0  0  0  0  0  0  0  0  0
  -16.1281  -17.2371  -24.8190 N   0  0  0  0  0  0  0  0  0  0  0  0
  -17.2230  -15.6491  -23.6483 O   0  0  0  0  0  0  0  0  0  0  0  0
  -15.4171  -17.7439  -25.8846 C   0  0  0  0  0  0  0  0  0  0  0  0
  -15.2774  -19.2043  -26.0251 C   0  0  0  0  0  0  0  0  0  0  0  0
  -14.6087  -19.7171  -27.1419 C   0  0  0  0  0  0  0  0  0  0  0  0
  -14.4337  -21.0811  -27.2917 C   0  0  0  0  0  0  0  0  0  0  0  0
  -14.9292  -21.9658  -26.3338 C   0  0  0  0  0  0  0  0  0  0  0  0
  -15.6249  -21.4650  -25.2296 C   0  0  0  0  0  0  0  0  0  0  0  0
  -15.7964  -20.0948  -25.0737 C   0  0  0  0  0  0  0  0  0  0  0  0
  -14.5885  -23.4535  -26.4129 C   0  0  0  0  0  0  0  0  0  0  0  0
  -14.2371  -23.8914  -27.6993 O   0  0  0  0  0  0  0  0  0  0  0  0
  -15.7678  -24.3783  -26.0824 C   0  0  0  0  0  0  0  0  0  0  0  0
  -13.3532  -23.6779  -25.5405 C   0  0  0  0  0  0  0  0  0  0  0  0
  -13.7154  -15.2314  -28.9661 Cl  0  0  0  0  0  0  0  0  0  0  0  0
  -14.1583  -12.5917  -28.0657 H   0  0  0  0  0  0  0  0  0  0  0  0
  -15.2888  -11.6864  -26.0676 H   0  0  0  0  0  0  0  0  0  0  0  0
  -16.3974  -13.2124  -24.4592 H   0  0  0  0  0  0  0  0  0  0  0  0
  -17.5223  -16.4387  -23.2130 H   0  0  0  0  0  0  0  0  0  0  0  0
  -14.2259  -19.0424  -27.8933 H   0  0  0  0  0  0  0  0  0  0  0  0
  -13.9102  -21.4634  -28.1556 H   0  0  0  0  0  0  0  0  0  0  0  0
  -16.0304  -22.1452  -24.4952 H   0  0  0  0  0  0  0  0  0  0  0  0
  -16.3315  -19.7140  -24.2164 H   0  0  0  0  0  0  0  0  0  0  0  0
  -14.0390  -24.8202  -27.6750 H   0  0  0  0  0  0  0  0  0  0  0  0
  -15.4452  -25.4270  -26.1607 H   0  0  0  0  0  0  0  0  0  0  0  0
  -16.1155  -24.1772  -25.0583 H   0  0  0  0  0  0  0  0  0  0  0  0
  -16.5884  -24.1934  -26.7912 H   0  0  0  0  0  0  0  0  0  0  0  0
  -13.0719  -24.7410  -25.5688 H   0  0  0  0  0  0  0  0  0  0  0  0
  -12.5203  -23.0681  -25.9206 H   0  0  0  0  0  0  0  0  0  0  0  0
  -13.5784  -23.3857  -24.5042 H   0  0  0  0  0  0  0  0  0  0  0  0
  1  2  2  0  0  0  0
  1  3  1  0  0  0  0
  1 22  1  0  0  0  0
  2  4  1  0  0  0  0
  2  5  1  0  0  0  0
  3  6  2  0  0  0  0
  4  7  2  0  0  0  0
  4  8  1  0  0  0  0
  5 11  2  0  0  0  0
  6  7  1  0  0  0  0
  8  9  2  0  0  0  0
  8 10  1  0  0  0  0
  9 11  1  0  0  0  0
 11 12  1  0  0  0  0
 12 13  2  0  0  0  0
 12 17  1  0  0  0  0
 13 14  1  0  0  0  0
 14 15  2  0  0  0  0
 15 16  1  0  0  0  0
 15 18  1  0  0  0  0
 16 17  2  0  0  0  0
 18 19  1  0  0  0  0
 18 20  1  0  0  0  0
 18 21  1  0  0  0  0
  3 23  1  0  0  0  0
  6 24  1  0  0  0  0
  7 25  1  0  0  0  0
 10 26  1  0  0  0  0
 13 27  1  0  0  0  0
 14 28  1  0  0  0  0
 16 29  1  0  0  0  0
 17 30  1  0  0  0  0
 19 31  1  0  0  0  0
 20 32  1  0  0  0  0
 20 33  1  0  0  0  0
 20 34  1  0  0  0  0
 21 35  1  0  0  0  0
 21 36  1  0  0  0  0
 21 37  1  0  0  0  0
M  END
> <Name>
5g

> <IC50[nM]>
12

$$$$
5g
  -OEChem-05192314333D
 Structure written by MMmdl.
 37 39  0     1  0  0  0  0  0999 V2000
  -14.5341  -14.6449  -27.5575 C   0  0  3  0  0  0  0  0  0  0  0  0
  -15.0978  -15.5129  -26.6098 C   0  0  0  0  0  0  0  0  0  0  0  0
  -14.6077  -13.2658  -27.3516 C   0  0  0  0  0  0  0  0  0  0  0  0
  -15.7922  -14.9870  -25.5133 C   0  0  0  0  0  0  0  0  0  0  0  0
  -14.9372  -16.9036  -26.7424 N   0  0  0  0  0  0  0  0  0  0  0  0
  -15.2582  -12.7538  -26.2292 C   0  0  0  0  0  0  0  0  0  0  0  0
  -15.8700  -13.6113  -25.3131 C   0  0  0  0  0  0  0  0  0  0  0  0
  -16.4499  -15.9479  -24.5524 C   0  0  0  0  0  0  0  0  0  0  0  0
  -16.1281  -17.2371  -24.8190 N   0  0  0  0  0  0  0  0  0  0  0  0
  -17.2230  -15.6491  -23.6483 O   0  0  0  0  0  0  0  0  0  0  0  0
  -15.4171  -17.7439  -25.8846 C   0  0  0  0  0  0  0  0  0  0  0  0
  -15.2774  -19.2043  -26.0251 C   0  0  0  0  0  0  0  0  0  0  0  0
  -14.6087  -19.7171  -27.1419 C   0  0  0  0  0  0  0  0  0  0  0  0
  -14.4337  -21.0811  -27.2917 C   0  0  0  0  0  0  0  0  0  0  0  0
  -14.9292  -21.9658  -26.3338 C   0  0  0  0  0  0  0  0  0  0  0  0
  -15.6249  -21.4650  -25.2296 C   0  0  0  0  0  0  0  0  0  0  0  0
  -15.7964  -20.0948  -25.0737 C   0  0  0  0  0  0  0  0  0  0  0  0
  -14.5885  -23.4535  -26.4129 C   0  0  0  0  0  0  0  0  0  0  0  0
  -14.2371  -23.8914  -27.6993 O   0  0  0  0  0  0  0  0  0  0  0  0
  -15.7678  -24.3783  -26.0824 C   0  0  0  0  0  0  0  0  0  0  0  0
  -13.3532  -23.6779  -25.5405 C   0  0  0  0  0  0  0  0  0  0  0  0
  -13.7154  -15.2314  -28.9661 Cl  0  0  0  0  0  0  0  0  0  0  0  0
  -15.4839  -14.6207  -28.1118 H   0  0  0  0  0  0  0  0  0  0  0  0
  -14.1583  -12.5917  -28.0657 H   0  0  0  0  0  0  0  0  0  0  0  0
  -15.2888  -11.6864  -26.0676 H   0  0  0  0  0  0  0  0  0  0  0  0
  -16.3974  -13.2124  -24.4592 H   0  0  0  0  0  0  0  0  0  0  0  0
  -14.2259  -19.0424  -27.8933 H   0  0  0  0  0  0  0  0  0  0  0  0
  -13.9102  -21.4634  -28.1556 H   0  0  0  0  0  0  0  0  0  0  0  0
  -16.0304  -22.1452  -24.4952 H   0  0  0  0  0  0  0  0  0  0  0  0
  -16.3315  -19.7140  -24.2164 H   0  0  0  0  0  0  0  0  0  0  0  0
  -14.0390  -24.8202  -27.6750 H   0  0  0  0  0  0  0  0  0  0  0  0
  -15.4452  -25.4270  -26.1607 H   0  0  0  0  0  0  0  0  0  0  0  0
  -16.1155  -24.1772  -25.0583 H   0  0  0  0  0  0  0  0  0  0  0  0
  -16.5884  -24.1934  -26.7912 H   0  0  0  0  0  0  0  0  0  0  0  0
  -13.0719  -24.7410  -25.5688 H   0  0  0  0  0  0  0  0  0  0  0  0
  -12.5203  -23.0681  -25.9206 H   0  0  0  0  0  0  0  0  0  0  0  0
  -13.5784  -23.3857  -24.5042 H   0  0  0  0  0  0  0  0  0  0  0  0
  1  2  1  0  0  0  0
  1  3  1  0  0  0  0
  1 22  1  0  0  0  0
  2  4  1  0  0  0  0
  2  5  2  0  0  0  0
  3  6  2  0  0  0  0
  4  7  2  0  0  0  0
  4  8  1  0  0  0  0
  5 11  1  0  0  0  0
  6  7  1  0  0  0  0
  8  9  1  0  0  0  0
  8 10  2  0  0  0  0
  9 11  2  0  0  0  0
 11 12  1  0  0  0  0
 12 13  2  0  0  0  0
 12 17  1  0  0  0  0
 13 14  1  0  0  0  0
 14 15  2  0  0  0  0
 15 16  1  0  0  0  0
 15 18  1  0  0  0  0
 16 17  2  0  0  0  0
 18 19  1  0  0  0  0
 18 20  1  0  0  0  0
 18 21  1  0  0  0  0
  1 23  1  0  0  0  0
  3 24  1  0  0  0  0
  6 25  1  0  0  0  0
  7 26  1  0  0  0  0
 13 27  1  0  0  0  0
 14 28  1  0  0  0  0
 16 29  1  0  0  0  0
 17 30  1  0  0  0  0
 19 31  1  0  0  0  0
 20 32  1  0  0  0  0
 20 33  1  0  0  0  0
 20 34  1  0  0  0  0
 21 35  1  0  0  0  0
 21 36  1  0  0  0  0
 21 37  1  0  0  0  0
M  END
> <Name>
5g

> <IC50[nM]>
12

$$$$
5g
  -OEChem-05192314333D
 Structure written by MMmdl.
 37 39  0     1  0  0  0  0  0999 V2000
  -14.5341  -14.6449  -27.5575 C   0  0  0  0  0  0  0  0  0  0  0  0
  -15.0978  -15.5129  -26.6098 C   0  0  0  0  0  0  0  0  0  0  0  0
  -14.6077  -13.2658  -27.3516 C   0  0  0  0  0  0  0  0  0  0  0  0
  -15.7922  -14.9870  -25.5133 C   0  0  3  0  0  0  0  0  0  0  0  0
  -14.9372  -16.9036  -26.7424 N   0  0  0  0  0  0  0  0  0  0  0  0
  -15.2582  -12.7538  -26.2292 C   0  0  0  0  0  0  0  0  0  0  0  0
  -15.8700  -13.6113  -25.3131 C   0  0  0  0  0  0  0  0  0  0  0  0
  -16.4499  -15.9479  -24.5524 C   0  0  0  0  0  0  0  0  0  0  0  0
  -16.1281  -17.2371  -24.8190 N   0  0  0  0  0  0  0  0  0  0  0  0
  -17.2230  -15.6491  -23.6483 O   0  0  0  0  0  0  0  0  0  0  0  0
  -15.4171  -17.7439  -25.8846 C   0  0  0  0  0  0  0  0  0  0  0  0
  -15.2774  -19.2043  -26.0251 C   0  0  0  0  0  0  0  0  0  0  0  0
  -14.6087  -19.7171  -27.1419 C   0  0  0  0  0  0  0  0  0  0  0  0
  -14.4337  -21.0811  -27.2917 C   0  0  0  0  0  0  0  0  0  0  0  0
  -14.9292  -21.9658  -26.3338 C   0  0  0  0  0  0  0  0  0  0  0  0
  -15.6249  -21.4650  -25.2296 C   0  0  0  0  0  0  0  0  0  0  0  0
  -15.7964  -20.0948  -25.0737 C   0  0  0  0  0  0  0  0  0  0  0  0
  -14.5885  -23.4535  -26.4129 C   0  0  0  0  0  0  0  0  0  0  0  0
  -14.2371  -23.8914  -27.6993 O   0  0  0  0  0  0  0  0  0  0  0  0
  -15.7678  -24.3783  -26.0824 C   0  0  0  0  0  0  0  0  0  0  0  0
  -13.3532  -23.6779  -25.5405 C   0  0  0  0  0  0  0  0  0  0  0  0
  -13.7154  -15.2314  -28.9661 Cl  0  0  0  0  0  0  0  0  0  0  0  0
  -14.1583  -12.5917  -28.0657 H   0  0  0  0  0  0  0  0  0  0  0  0
  -16.7143  -14.9531  -26.1121 H   0  0  0  0  0  0  0  0  0  0  0  0
  -15.2888  -11.6864  -26.0676 H   0  0  0  0  0  0  0  0  0  0  0  0
  -16.3974  -13.2124  -24.4592 H   0  0  0  0  0  0  0  0  0  0  0  0
  -14.2259  -19.0424  -27.8933 H   0  0  0  0  0  0  0  0  0  0  0  0
  -13.9102  -21.4634  -28.1556 H   0  0  0  0  0  0  0  0  0  0  0  0
  -16.0304  -22.1452  -24.4952 H   0  0  0  0  0  0  0  0  0  0  0  0
  -16.3315  -19.7140  -24.2164 H   0  0  0  0  0  0  0  0  0  0  0  0
  -14.0390  -24.8202  -27.6750 H   0  0  0  0  0  0  0  0  0  0  0  0
  -15.4452  -25.4270  -26.1607 H   0  0  0  0  0  0  0  0  0  0  0  0
  -16.1155  -24.1772  -25.0583 H   0  0  0  0  0  0  0  0  0  0  0  0
  -16.5884  -24.1934  -26.7912 H   0  0  0  0  0  0  0  0  0  0  0  0
  -13.0719  -24.7410  -25.5688 H   0  0  0  0  0  0  0  0  0  0  0  0
  -12.5203  -23.0681  -25.9206 H   0  0  0  0  0  0  0  0  0  0  0  0
  -13.5784  -23.3857  -24.5042 H   0  0  0  0  0  0  0  0  0  0  0  0
  1  2  1  0  0  0  0
  1  3  2  0  0  0  0
  1 22  1  0  0  0  0
  2  4  1  0  0  0  0
  2  5  2  0  0  0  0
  3  6  1  0  0  0  0
  4  7  1  0  0  0  0
  4  8  1  0  0  0  0
  5 11  1  0  0  0  0
  6  7  2  0  0  0  0
  8  9  1  0  0  0  0
  8 10  2  0  0  0  0
  9 11  2  0  0  0  0
 11 12  1  0  0  0  0
 12 13  2  0  0  0  0
 12 17  1  0  0  0  0
 13 14  1  0  0  0  0
 14 15  2  0  0  0  0
 15 16  1  0  0  0  0
 15 18  1  0  0  0  0
 16 17  2  0  0  0  0
 18 19  1  0  0  0  0
 18 20  1  0  0  0  0
 18 21  1  0  0  0  0
  3 23  1  0  0  0  0
  4 24  1  0  0  0  0
  6 25  1  0  0  0  0
  7 26  1  0  0  0  0
 13 27  1  0  0  0  0
 14 28  1  0  0  0  0
 16 29  1  0  0  0  0
 17 30  1  0  0  0  0
 19 31  1  0  0  0  0
 20 32  1  0  0  0  0
 20 33  1  0  0  0  0
 20 34  1  0  0  0  0
 21 35  1  0  0  0  0
 21 36  1  0  0  0  0
 21 37  1  0  0  0  0
M  END
> <Name>
5g

> <IC50[nM]>
12

$$$$
5g
  -OEChem-05192314333D
 Structure written by MMmdl.
 37 39  0     0  0  0  0  0  0999 V2000
  -14.5341  -14.6449  -27.5575 C   0  0  0  0  0  0  0  0  0  0  0  0
  -15.0978  -15.5129  -26.6098 C   0  0  0  0  0  0  0  0  0  0  0  0
  -14.6077  -13.2658  -27.3516 C   0  0  0  0  0  0  0  0  0  0  0  0
  -15.7922  -14.9870  -25.5133 C   0  0  0  0  0  0  0  0  0  0  0  0
  -14.9372  -16.9036  -26.7424 N   0  0  0  0  0  0  0  0  0  0  0  0
  -15.2582  -12.7538  -26.2292 C   0  0  0  0  0  0  0  0  0  0  0  0
  -15.8700  -13.6113  -25.3131 C   0  0  0  0  0  0  0  0  0  0  0  0
  -16.4499  -15.9479  -24.5524 C   0  0  0  0  0  0  0  0  0  0  0  0
  -16.1281  -17.2371  -24.8190 N   0  0  0  0  0  0  0  0  0  0  0  0
  -17.2230  -15.6491  -23.6483 O   0  0  0  0  0  0  0  0  0  0  0  0
  -15.4171  -17.7439  -25.8846 C   0  0  0  0  0  0  0  0  0  0  0  0
  -15.2774  -19.2043  -26.0251 C   0  0  0  0  0  0  0  0  0  0  0  0
  -14.6087  -19.7171  -27.1419 C   0  0  0  0  0  0  0  0  0  0  0  0
  -14.4337  -21.0811  -27.2917 C   0  0  0  0  0  0  0  0  0  0  0  0
  -14.9292  -21.9658  -26.3338 C   0  0  0  0  0  0  0  0  0  0  0  0
  -15.6249  -21.4650  -25.2296 C   0  0  0  0  0  0  0  0  0  0  0  0
  -15.7964  -20.0948  -25.0737 C   0  0  0  0  0  0  0  0  0  0  0  0
  -14.5885  -23.4535  -26.4129 C   0  0  0  0  0  0  0  0  0  0  0  0
  -14.2371  -23.8914  -27.6993 O   0  0  0  0  0  0  0  0  0  0  0  0
  -15.7678  -24.3783  -26.0824 C   0  0  0  0  0  0  0  0  0  0  0  0
  -13.3532  -23.6779  -25.5405 C   0  0  0  0  0  0  0  0  0  0  0  0
  -13.7154  -15.2314  -28.9661 Cl  0  0  0  0  0  0  0  0  0  0  0  0
  -14.1583  -12.5917  -28.0657 H   0  0  0  0  0  0  0  0  0  0  0  0
  -14.5101  -12.1747  -25.6680 H   0  0  0  0  0  0  0  0  0  0  0  0
  -16.0424  -12.0775  -26.6004 H   0  0  0  0  0  0  0  0  0  0  0  0
  -16.3974  -13.2124  -24.4592 H   0  0  0  0  0  0  0  0  0  0  0  0
  -14.2259  -19.0424  -27.8933 H   0  0  0  0  0  0  0  0  0  0  0  0
  -13.9102  -21.4634  -28.1556 H   0  0  0  0  0  0  0  0  0  0  0  0
  -16.0304  -22.1452  -24.4952 H   0  0  0  0  0  0  0  0  0  0  0  0
  -16.3315  -19.7140  -24.2164 H   0  0  0  0  0  0  0  0  0  0  0  0
  -14.0390  -24.8202  -27.6750 H   0  0  0  0  0  0  0  0  0  0  0  0
  -15.4452  -25.4270  -26.1607 H   0  0  0  0  0  0  0  0  0  0  0  0
  -16.1155  -24.1772  -25.0583 H   0  0  0  0  0  0  0  0  0  0  0  0
  -16.5884  -24.1934  -26.7912 H   0  0  0  0  0  0  0  0  0  0  0  0
  -13.0719  -24.7410  -25.5688 H   0  0  0  0  0  0  0  0  0  0  0  0
  -12.5203  -23.0681  -25.9206 H   0  0  0  0  0  0  0  0  0  0  0  0
  -13.5784  -23.3857  -24.5042 H   0  0  0  0  0  0  0  0  0  0  0  0
  1  2  1  0  0  0  0
  1  3  2  0  0  0  0
  1 22  1  0  0  0  0
  2  4  1  0  0  0  0
  2  5  2  0  0  0  0
  3  6  1  0  0  0  0
  4  7  2  0  0  0  0
  4  8  1  0  0  0  0
  5 11  1  0  0  0  0
  6  7  1  0  0  0  0
  8  9  1  0  0  0  0
  8 10  2  0  0  0  0
  9 11  2  0  0  0  0
 11 12  1  0  0  0  0
 12 13  2  0  0  0  0
 12 17  1  0  0  0  0
 13 14  1  0  0  0  0
 14 15  2  0  0  0  0
 15 16  1  0  0  0  0
 15 18  1  0  0  0  0
 16 17  2  0  0  0  0
 18 19  1  0  0  0  0
 18 20  1  0  0  0  0
 18 21  1  0  0  0  0
  3 23  1  0  0  0  0
  6 24  1  0  0  0  0
  6 25  1  0  0  0  0
  7 26  1  0  0  0  0
 13 27  1  0  0  0  0
 14 28  1  0  0  0  0
 16 29  1  0  0  0  0
 17 30  1  0  0  0  0
 19 31  1  0  0  0  0
 20 32  1  0  0  0  0
 20 33  1  0  0  0  0
 20 34  1  0  0  0  0
 21 35  1  0  0  0  0
 21 36  1  0  0  0  0
 21 37  1  0  0  0  0
M  END
> <Name>
5g

> <IC50[nM]>
12

$$$$
