5j
  -OEChem-05192314333D
 Structure written by MMmdl.
 37 39  0     0  0  0  0  0  0999 V2000
  -14.7191  -14.7437  -27.6392 C   0  0  0  0  0  0  0  0  0  0  0  0
  -15.2100  -15.5576  -26.6217 C   0  0  0  0  0  0  0  0  0  0  0  0
  -14.8546  -13.3638  -27.5278 C   0  0  0  0  0  0  0  0  0  0  0  0
  -15.8634  -15.0119  -25.5100 C   0  0  0  0  0  0  0  0  0  0  0  0
  -15.0155  -16.9311  -26.7330 N   0  0  0  0  0  0  0  0  0  0  0  0
  -15.4818  -12.8157  -26.4108 C   0  0  0  0  0  0  0  0  0  0  0  0
  -15.9953  -13.6326  -25.3960 C   0  0  0  0  0  0  0  0  0  0  0  0
  -16.4010  -15.9560  -24.4529 C   0  0  0  0  0  0  0  0  0  0  0  0
  -16.1237  -17.2489  -24.7503 N   0  0  0  0  0  0  0  0  0  0  0  0
  -17.0404  -15.6548  -23.4436 O   0  0  0  0  0  0  0  0  0  0  0  0
  -15.4465  -17.7571  -25.8425 C   0  0  0  0  0  0  0  0  0  0  0  0
  -15.2799  -19.2057  -25.9856 C   0  0  0  0  0  0  0  0  0  0  0  0
  -15.7256  -20.0944  -24.9990 C   0  0  0  0  0  0  0  0  0  0  0  0
  -15.5412  -21.4568  -25.1662 C   0  0  0  0  0  0  0  0  0  0  0  0
  -14.9164  -21.9424  -26.3174 C   0  0  0  0  0  0  0  0  0  0  0  0
  -14.4855  -21.0603  -27.3040 C   0  0  0  0  0  0  0  0  0  0  0  0
  -14.6633  -19.7033  -27.1404 C   0  0  0  0  0  0  0  0  0  0  0  0
  -14.5856  -23.4201  -26.4266 C   0  0  0  0  0  0  0  0  0  0  0  0
  -14.2271  -23.8386  -27.7106 O   0  0  0  0  0  0  0  0  0  0  0  0
  -15.5915  -11.4816  -26.3335 F   0  0  0  0  0  0  0  0  0  0  0  0
  -16.6030  -13.1004  -24.3145 F   0  0  0  0  0  0  0  0  0  0  0  0
  -15.7860  -24.3161  -26.1231 C   0  0  0  0  0  0  0  0  0  0  0  0
  -13.3500  -23.6601  -25.5696 C   0  0  0  0  0  0  0  0  0  0  0  0
  -14.2393  -15.1782  -28.5038 H   0  0  0  0  0  0  0  0  0  0  0  0
  -14.4743  -12.7184  -28.3057 H   0  0  0  0  0  0  0  0  0  0  0  0
  -16.4531  -17.9253  -24.0915 H   0  0  0  0  0  0  0  0  0  0  0  0
  -16.2115  -19.7185  -24.1108 H   0  0  0  0  0  0  0  0  0  0  0  0
  -15.8808  -22.1445  -24.4058 H   0  0  0  0  0  0  0  0  0  0  0  0
  -14.0119  -21.4391  -28.1977 H   0  0  0  0  0  0  0  0  0  0  0  0
  -14.3256  -19.0207  -27.9062 H   0  0  0  0  0  0  0  0  0  0  0  0
  -14.0358  -24.7691  -27.6990 H   0  0  0  0  0  0  0  0  0  0  0  0
  -15.4896  -25.3713  -26.2169 H   0  0  0  0  0  0  0  0  0  0  0  0
  -16.1372  -24.1238  -25.0986 H   0  0  0  0  0  0  0  0  0  0  0  0
  -16.5955  -24.0980  -26.8352 H   0  0  0  0  0  0  0  0  0  0  0  0
  -13.0707  -24.7230  -25.6175 H   0  0  0  0  0  0  0  0  0  0  0  0
  -12.5186  -23.0454  -25.9449 H   0  0  0  0  0  0  0  0  0  0  0  0
  -13.5679  -23.3850  -24.5271 H   0  0  0  0  0  0  0  0  0  0  0  0
  1  2  2  0  0  0  0
  1  3  1  0  0  0  0
  2  4  1  0  0  0  0
  2  5  1  0  0  0  0
  3  6  2  0  0  0  0
  4  7  2  0  0  0  0
  4  8  1  0  0  0  0
  5 11  2  0  0  0  0
  6  7  1  0  0  0  0
  6 20  1  0  0  0  0
  7 21  1  0  0  0  0
  8  9  1  0  0  0  0
  8 10  2  0  0  0  0
  9 11  1  0  0  0  0
 11 12  1  0  0  0  0
 12 13  2  0  0  0  0
 12 17  1  0  0  0  0
 13 14  1  0  0  0  0
 14 15  2  0  0  0  0
 15 16  1  0  0  0  0
 15 18  1  0  0  0  0
 16 17  2  0  0  0  0
 18 19  1  0  0  0  0
 18 22  1  0  0  0  0
 18 23  1  0  0  0  0
  1 24  1  0  0  0  0
  3 25  1  0  0  0  0
  9 26  1  0  0  0  0
 13 27  1  0  0  0  0
 14 28  1  0  0  0  0
 16 29  1  0  0  0  0
 17 30  1  0  0  0  0
 19 31  1  0  0  0  0
 22 32  1  0  0  0  0
 22 33  1  0  0  0  0
 22 34  1  0  0  0  0
 23 35  1  0  0  0  0
 23 36  1  0  0  0  0
 23 37  1  0  0  0  0
M  END
> <Name>
5j

> <IC50[nM]>
7.5

$$$$
5j
  -OEChem-05192314333D
 Structure written by MMmdl.
 37 39  0     0  0  0  0  0  0999 V2000
  -14.7191  -14.7437  -27.6392 C   0  0  0  0  0  0  0  0  0  0  0  0
  -15.2100  -15.5576  -26.6217 C   0  0  0  0  0  0  0  0  0  0  0  0
  -14.8546  -13.3638  -27.5278 C   0  0  0  0  0  0  0  0  0  0  0  0
  -15.8634  -15.0119  -25.5100 C   0  0  0  0  0  0  0  0  0  0  0  0
  -15.0155  -16.9311  -26.7330 N   0  0  0  0  0  0  0  0  0  0  0  0
  -15.4818  -12.8157  -26.4108 C   0  0  0  0  0  0  0  0  0  0  0  0
  -15.9953  -13.6326  -25.3960 C   0  0  0  0  0  0  0  0  0  0  0  0
  -16.4010  -15.9560  -24.4529 C   0  0  0  0  0  0  0  0  0  0  0  0
  -16.1237  -17.2489  -24.7503 N   0  0  0  0  0  0  0  0  0  0  0  0
  -17.0404  -15.6548  -23.4436 O   0  0  0  0  0  0  0  0  0  0  0  0
  -15.4465  -17.7571  -25.8425 C   0  0  0  0  0  0  0  0  0  0  0  0
  -15.2799  -19.2057  -25.9856 C   0  0  0  0  0  0  0  0  0  0  0  0
  -15.7256  -20.0944  -24.9990 C   0  0  0  0  0  0  0  0  0  0  0  0
  -15.5412  -21.4568  -25.1662 C   0  0  0  0  0  0  0  0  0  0  0  0
  -14.9164  -21.9424  -26.3174 C   0  0  0  0  0  0  0  0  0  0  0  0
  -14.4855  -21.0603  -27.3040 C   0  0  0  0  0  0  0  0  0  0  0  0
  -14.6633  -19.7033  -27.1404 C   0  0  0  0  0  0  0  0  0  0  0  0
  -14.5856  -23.4201  -26.4266 C   0  0  0  0  0  0  0  0  0  0  0  0
  -14.2271  -23.8386  -27.7106 O   0  0  0  0  0  0  0  0  0  0  0  0
  -15.5915  -11.4816  -26.3335 F   0  0  0  0  0  0  0  0  0  0  0  0
  -16.6030  -13.1004  -24.3145 F   0  0  0  0  0  0  0  0  0  0  0  0
  -15.7860  -24.3161  -26.1231 C   0  0  0  0  0  0  0  0  0  0  0  0
  -13.3500  -23.6601  -25.5696 C   0  0  0  0  0  0  0  0  0  0  0  0
  -14.2393  -15.1782  -28.5038 H   0  0  0  0  0  0  0  0  0  0  0  0
  -14.4743  -12.7184  -28.3057 H   0  0  0  0  0  0  0  0  0  0  0  0
  -14.5261  -17.2882  -27.5286 H   0  0  0  0  0  0  0  0  0  0  0  0
  -16.2115  -19.7185  -24.1108 H   0  0  0  0  0  0  0  0  0  0  0  0
  -15.8808  -22.1445  -24.4058 H   0  0  0  0  0  0  0  0  0  0  0  0
  -14.0119  -21.4391  -28.1977 H   0  0  0  0  0  0  0  0  0  0  0  0
  -14.3256  -19.0207  -27.9062 H   0  0  0  0  0  0  0  0  0  0  0  0
  -14.0358  -24.7691  -27.6990 H   0  0  0  0  0  0  0  0  0  0  0  0
  -15.4896  -25.3713  -26.2169 H   0  0  0  0  0  0  0  0  0  0  0  0
  -16.1372  -24.1238  -25.0986 H   0  0  0  0  0  0  0  0  0  0  0  0
  -16.5955  -24.0980  -26.8352 H   0  0  0  0  0  0  0  0  0  0  0  0
  -13.0707  -24.7230  -25.6175 H   0  0  0  0  0  0  0  0  0  0  0  0
  -12.5186  -23.0454  -25.9449 H   0  0  0  0  0  0  0  0  0  0  0  0
  -13.5679  -23.3850  -24.5271 H   0  0  0  0  0  0  0  0  0  0  0  0
  1  2  2  0  0  0  0
  1  3  1  0  0  0  0
  2  4  1  0  0  0  0
  2  5  1  0  0  0  0
  3  6  2  0  0  0  0
  4  7  2  0  0  0  0
  4  8  1  0  0  0  0
  5 11  1  0  0  0  0
  6  7  1  0  0  0  0
  6 20  1  0  0  0  0
  7 21  1  0  0  0  0
  8  9  1  0  0  0  0
  8 10  2  0  0  0  0
  9 11  2  0  0  0  0
 11 12  1  0  0  0  0
 12 13  2  0  0  0  0
 12 17  1  0  0  0  0
 13 14  1  0  0  0  0
 14 15  2  0  0  0  0
 15 16  1  0  0  0  0
 15 18  1  0  0  0  0
 16 17  2  0  0  0  0
 18 19  1  0  0  0  0
 18 22  1  0  0  0  0
 18 23  1  0  0  0  0
  1 24  1  0  0  0  0
  3 25  1  0  0  0  0
  5 26  1  0  0  0  0
 13 27  1  0  0  0  0
 14 28  1  0  0  0  0
 16 29  1  0  0  0  0
 17 30  1  0  0  0  0
 19 31  1  0  0  0  0
 22 32  1  0  0  0  0
 22 33  1  0  0  0  0
 22 34  1  0  0  0  0
 23 35  1  0  0  0  0
 23 36  1  0  0  0  0
 23 37  1  0  0  0  0
M  END
> <Name>
5j

> <IC50[nM]>
7.5

$$$$
5j
  -OEChem-05192314333D
 Structure written by MMmdl.
 37 39  0     0  0  0  0  0  0999 V2000
  -14.7191  -14.7437  -27.6392 C   0  0  0  0  0  0  0  0  0  0  0  0
  -15.2100  -15.5576  -26.6217 C   0  0  0  0  0  0  0  0  0  0  0  0
  -14.8546  -13.3638  -27.5278 C   0  0  0  0  0  0  0  0  0  0  0  0
  -15.8634  -15.0119  -25.5100 C   0  0  0  0  0  0  0  0  0  0  0  0
  -15.0155  -16.9311  -26.7330 N   0  0  0  0  0  0  0  0  0  0  0  0
  -15.4818  -12.8157  -26.4108 C   0  0  0  0  0  0  0  0  0  0  0  0
  -15.9953  -13.6326  -25.3960 C   0  0  0  0  0  0  0  0  0  0  0  0
  -16.4010  -15.9560  -24.4529 C   0  0  0  0  0  0  0  0  0  0  0  0
  -16.1237  -17.2489  -24.7503 N   0  0  0  0  0  0  0  0  0  0  0  0
  -17.0404  -15.6548  -23.4436 O   0  0  0  0  0  0  0  0  0  0  0  0
  -15.4465  -17.7571  -25.8425 C   0  0  0  0  0  0  0  0  0  0  0  0
  -15.2799  -19.2057  -25.9856 C   0  0  0  0  0  0  0  0  0  0  0  0
  -15.7256  -20.0944  -24.9990 C   0  0  0  0  0  0  0  0  0  0  0  0
  -15.5412  -21.4568  -25.1662 C   0  0  0  0  0  0  0  0  0  0  0  0
  -14.9164  -21.9424  -26.3174 C   0  0  0  0  0  0  0  0  0  0  0  0
  -14.4855  -21.0603  -27.3040 C   0  0  0  0  0  0  0  0  0  0  0  0
  -14.6633  -19.7033  -27.1404 C   0  0  0  0  0  0  0  0  0  0  0  0
  -14.5856  -23.4201  -26.4266 C   0  0  0  0  0  0  0  0  0  0  0  0
  -14.2271  -23.8386  -27.7106 O   0  0  0  0  0  0  0  0  0  0  0  0
  -15.5915  -11.4816  -26.3335 F   0  0  0  0  0  0  0  0  0  0  0  0
  -16.6030  -13.1004  -24.3145 F   0  0  0  0  0  0  0  0  0  0  0  0
  -15.7860  -24.3161  -26.1231 C   0  0  0  0  0  0  0  0  0  0  0  0
  -13.3500  -23.6601  -25.5696 C   0  0  0  0  0  0  0  0  0  0  0  0
  -14.2393  -15.1782  -28.5038 H   0  0  0  0  0  0  0  0  0  0  0  0
  -14.4743  -12.7184  -28.3057 H   0  0  0  0  0  0  0  0  0  0  0  0
  -17.2728  -16.4438  -22.9682 H   0  0  0  0  0  0  0  0  0  0  0  0
  -16.2115  -19.7185  -24.1108 H   0  0  0  0  0  0  0  0  0  0  0  0
  -15.8808  -22.1445  -24.4058 H   0  0  0  0  0  0  0  0  0  0  0  0
  -14.0119  -21.4391  -28.1977 H   0  0  0  0  0  0  0  0  0  0  0  0
  -14.3256  -19.0207  -27.9062 H   0  0  0  0  0  0  0  0  0  0  0  0
  -14.0358  -24.7691  -27.6990 H   0  0  0  0  0  0  0  0  0  0  0  0
  -15.4896  -25.3713  -26.2169 H   0  0  0  0  0  0  0  0  0  0  0  0
  -16.1372  -24.1238  -25.0986 H   0  0  0  0  0  0  0  0  0  0  0  0
  -16.5955  -24.0980  -26.8352 H   0  0  0  0  0  0  0  0  0  0  0  0
  -13.0707  -24.7230  -25.6175 H   0  0  0  0  0  0  0  0  0  0  0  0
  -12.5186  -23.0454  -25.9449 H   0  0  0  0  0  0  0  0  0  0  0  0
  -13.5679  -23.3850  -24.5271 H   0  0  0  0  0  0  0  0  0  0  0  0
  1  2  2  0  0  0  0
  1  3  1  0  0  0  0
  2  4  1  0  0  0  0
  2  5  1  0  0  0  0
  3  6  2  0  0  0  0
  4  7  2  0  0  0  0
  4  8  1  0  0  0  0
  5 11  2  0  0  0  0
  6  7  1  0  0  0  0
  6 20  1  0  0  0  0
  7 21  1  0  0  0  0
  8  9  2  0  0  0  0
  8 10  1  0  0  0  0
  9 11  1  0  0  0  0
 11 12  1  0  0  0  0
 12 13  2  0  0  0  0
 12 17  1  0  0  0  0
 13 14  1  0  0  0  0
 14 15  2  0  0  0  0
 15 16  1  0  0  0  0
 15 18  1  0  0  0  0
 16 17  2  0  0  0  0
 18 19  1  0  0  0  0
 18 22  1  0  0  0  0
 18 23  1  0  0  0  0
  1 24  1  0  0  0  0
  3 25  1  0  0  0  0
 10 26  1  0  0  0  0
 13 27  1  0  0  0  0
 14 28  1  0  0  0  0
 16 29  1  0  0  0  0
 17 30  1  0  0  0  0
 19 31  1  0  0  0  0
 22 32  1  0  0  0  0
 22 33  1  0  0  0  0
 22 34  1  0  0  0  0
 23 35  1  0  0  0  0
 23 36  1  0  0  0  0
 23 37  1  0  0  0  0
M  END
> <Name>
5j

> <IC50[nM]>
7.5

$$$$
5j
  -OEChem-05192314333D
 Structure written by MMmdl.
 37 39  0     1  0  0  0  0  0999 V2000
  -14.7191  -14.7437  -27.6392 C   0  0  0  0  0  0  0  0  0  0  0  0
  -15.2100  -15.5576  -26.6217 C   0  0  0  0  0  0  0  0  0  0  0  0
  -14.8546  -13.3638  -27.5278 C   0  0  0  0  0  0  0  0  0  0  0  0
  -15.8634  -15.0119  -25.5100 C   0  0  0  0  0  0  0  0  0  0  0  0
  -15.0155  -16.9311  -26.7330 N   0  0  0  0  0  0  0  0  0  0  0  0
  -15.4818  -12.8157  -26.4108 C   0  0  3  0  0  0  0  0  0  0  0  0
  -15.9953  -13.6326  -25.3960 C   0  0  0  0  0  0  0  0  0  0  0  0
  -16.4010  -15.9560  -24.4529 C   0  0  0  0  0  0  0  0  0  0  0  0
  -16.1237  -17.2489  -24.7503 N   0  0  0  0  0  0  0  0  0  0  0  0
  -17.0404  -15.6548  -23.4436 O   0  0  0  0  0  0  0  0  0  0  0  0
  -15.4465  -17.7571  -25.8425 C   0  0  0  0  0  0  0  0  0  0  0  0
  -15.2799  -19.2057  -25.9856 C   0  0  0  0  0  0  0  0  0  0  0  0
  -15.7256  -20.0944  -24.9990 C   0  0  0  0  0  0  0  0  0  0  0  0
  -15.5412  -21.4568  -25.1662 C   0  0  0  0  0  0  0  0  0  0  0  0
  -14.9164  -21.9424  -26.3174 C   0  0  0  0  0  0  0  0  0  0  0  0
  -14.4855  -21.0603  -27.3040 C   0  0  0  0  0  0  0  0  0  0  0  0
  -14.6633  -19.7033  -27.1404 C   0  0  0  0  0  0  0  0  0  0  0  0
  -14.5856  -23.4201  -26.4266 C   0  0  0  0  0  0  0  0  0  0  0  0
  -14.2271  -23.8386  -27.7106 O   0  0  0  0  0  0  0  0  0  0  0  0
  -15.5915  -11.4816  -26.3335 F   0  0  0  0  0  0  0  0  0  0  0  0
  -16.6030  -13.1004  -24.3145 F   0  0  0  0  0  0  0  0  0  0  0  0
  -15.7860  -24.3161  -26.1231 C   0  0  0  0  0  0  0  0  0  0  0  0
  -13.3500  -23.6601  -25.5696 C   0  0  0  0  0  0  0  0  0  0  0  0
  -14.2393  -15.1782  -28.5038 H   0  0  0  0  0  0  0  0  0  0  0  0
  -14.4743  -12.7184  -28.3057 H   0  0  0  0  0  0  0  0  0  0  0  0
  -14.5152  -12.7692  -25.8877 H   0  0  0  0  0  0  0  0  0  0  0  0
  -16.2115  -19.7185  -24.1108 H   0  0  0  0  0  0  0  0  0  0  0  0
  -15.8808  -22.1445  -24.4058 H   0  0  0  0  0  0  0  0  0  0  0  0
  -14.0119  -21.4391  -28.1977 H   0  0  0  0  0  0  0  0  0  0  0  0
  -14.3256  -19.0207  -27.9062 H   0  0  0  0  0  0  0  0  0  0  0  0
  -14.0358  -24.7691  -27.6990 H   0  0  0  0  0  0  0  0  0  0  0  0
  -15.4896  -25.3713  -26.2169 H   0  0  0  0  0  0  0  0  0  0  0  0
  -16.1372  -24.1238  -25.0986 H   0  0  0  0  0  0  0  0  0  0  0  0
  -16.5955  -24.0980  -26.8352 H   0  0  0  0  0  0  0  0  0  0  0  0
  -13.0707  -24.7230  -25.6175 H   0  0  0  0  0  0  0  0  0  0  0  0
  -12.5186  -23.0454  -25.9449 H   0  0  0  0  0  0  0  0  0  0  0  0
  -13.5679  -23.3850  -24.5271 H   0  0  0  0  0  0  0  0  0  0  0  0
  1  2  1  0  0  0  0
  1  3  2  0  0  0  0
  2  4  1  0  0  0  0
  2  5  2  0  0  0  0
  3  6  1  0  0  0  0
  4  7  2  0  0  0  0
  4  8  1  0  0  0  0
  5 11  1  0  0  0  0
  6  7  1  0  0  0  0
  6 20  1  0  0  0  0
  7 21  1  0  0  0  0
  8  9  1  0  0  0  0
  8 10  2  0  0  0  0
  9 11  2  0  0  0  0
 11 12  1  0  0  0  0
 12 13  2  0  0  0  0
 12 17  1  0  0  0  0
 13 14  1  0  0  0  0
 14 15  2  0  0  0  0
 15 16  1  0  0  0  0
 15 18  1  0  0  0  0
 16 17  2  0  0  0  0
 18 19  1  0  0  0  0
 18 22  1  0  0  0  0
 18 23  1  0  0  0  0
  1 24  1  0  0  0  0
  3 25  1  0  0  0  0
  6 26  1  0  0  0  0
 13 27  1  0  0  0  0
 14 28  1  0  0  0  0
 16 29  1  0  0  0  0
 17 30  1  0  0  0  0
 19 31  1  0  0  0  0
 22 32  1  0  0  0  0
 22 33  1  0  0  0  0
 22 34  1  0  0  0  0
 23 35  1  0  0  0  0
 23 36  1  0  0  0  0
 23 37  1  0  0  0  0
M  END
> <Name>
5j

> <IC50[nM]>
7.5

$$$$
5j
  -OEChem-05192314333D
 Structure written by MMmdl.
 37 39  0     1  0  0  0  0  0999 V2000
  -14.7191  -14.7437  -27.6392 C   0  0  0  0  0  0  0  0  0  0  0  0
  -15.2100  -15.5576  -26.6217 C   0  0  0  0  0  0  0  0  0  0  0  0
  -14.8546  -13.3638  -27.5278 C   0  0  0  0  0  0  0  0  0  0  0  0
  -15.8634  -15.0119  -25.5100 C   0  0  3  0  0  0  0  0  0  0  0  0
  -15.0155  -16.9311  -26.7330 N   0  0  0  0  0  0  0  0  0  0  0  0
  -15.4818  -12.8157  -26.4108 C   0  0  0  0  0  0  0  0  0  0  0  0
  -15.9953  -13.6326  -25.3960 C   0  0  0  0  0  0  0  0  0  0  0  0
  -16.4010  -15.9560  -24.4529 C   0  0  0  0  0  0  0  0  0  0  0  0
  -16.1237  -17.2489  -24.7503 N   0  0  0  0  0  0  0  0  0  0  0  0
  -17.0404  -15.6548  -23.4436 O   0  0  0  0  0  0  0  0  0  0  0  0
  -15.4465  -17.7571  -25.8425 C   0  0  0  0  0  0  0  0  0  0  0  0
  -15.2799  -19.2057  -25.9856 C   0  0  0  0  0  0  0  0  0  0  0  0
  -15.7256  -20.0944  -24.9990 C   0  0  0  0  0  0  0  0  0  0  0  0
  -15.5412  -21.4568  -25.1662 C   0  0  0  0  0  0  0  0  0  0  0  0
  -14.9164  -21.9424  -26.3174 C   0  0  0  0  0  0  0  0  0  0  0  0
  -14.4855  -21.0603  -27.3040 C   0  0  0  0  0  0  0  0  0  0  0  0
  -14.6633  -19.7033  -27.1404 C   0  0  0  0  0  0  0  0  0  0  0  0
  -14.5856  -23.4201  -26.4266 C   0  0  0  0  0  0  0  0  0  0  0  0
  -14.2271  -23.8386  -27.7106 O   0  0  0  0  0  0  0  0  0  0  0  0
  -15.5915  -11.4816  -26.3335 F   0  0  0  0  0  0  0  0  0  0  0  0
  -16.6030  -13.1004  -24.3145 F   0  0  0  0  0  0  0  0  0  0  0  0
  -15.7860  -24.3161  -26.1231 C   0  0  0  0  0  0  0  0  0  0  0  0
  -13.3500  -23.6601  -25.5696 C   0  0  0  0  0  0  0  0  0  0  0  0
  -14.2393  -15.1782  -28.5038 H   0  0  0  0  0  0  0  0  0  0  0  0
  -14.4743  -12.7184  -28.3057 H   0  0  0  0  0  0  0  0  0  0  0  0
  -16.8227  -15.0620  -26.0460 H   0  0  0  0  0  0  0  0  0  0  0  0
  -16.2115  -19.7185  -24.1108 H   0  0  0  0  0  0  0  0  0  0  0  0
  -15.8808  -22.1445  -24.4058 H   0  0  0  0  0  0  0  0  0  0  0  0
  -14.0119  -21.4391  -28.1977 H   0  0  0  0  0  0  0  0  0  0  0  0
  -14.3256  -19.0207  -27.9062 H   0  0  0  0  0  0  0  0  0  0  0  0
  -14.0358  -24.7691  -27.6990 H   0  0  0  0  0  0  0  0  0  0  0  0
  -15.4896  -25.3713  -26.2169 H   0  0  0  0  0  0  0  0  0  0  0  0
  -16.1372  -24.1238  -25.0986 H   0  0  0  0  0  0  0  0  0  0  0  0
  -16.5955  -24.0980  -26.8352 H   0  0  0  0  0  0  0  0  0  0  0  0
  -13.0707  -24.7230  -25.6175 H   0  0  0  0  0  0  0  0  0  0  0  0
  -12.5186  -23.0454  -25.9449 H   0  0  0  0  0  0  0  0  0  0  0  0
  -13.5679  -23.3850  -24.5271 H   0  0  0  0  0  0  0  0  0  0  0  0
  1  2  1  0  0  0  0
  1  3  2  0  0  0  0
  2  4  1  0  0  0  0
  2  5  2  0  0  0  0
  3  6  1  0  0  0  0
  4  7  1  0  0  0  0
  4  8  1  0  0  0  0
  5 11  1  0  0  0  0
  6  7  2  0  0  0  0
  6 20  1  0  0  0  0
  7 21  1  0  0  0  0
  8  9  1  0  0  0  0
  8 10  2  0  0  0  0
  9 11  2  0  0  0  0
 11 12  1  0  0  0  0
 12 13  2  0  0  0  0
 12 17  1  0  0  0  0
 13 14  1  0  0  0  0
 14 15  2  0  0  0  0
 15 16  1  0  0  0  0
 15 18  1  0  0  0  0
 16 17  2  0  0  0  0
 18 19  1  0  0  0  0
 18 22  1  0  0  0  0
 18 23  1  0  0  0  0
  1 24  1  0  0  0  0
  3 25  1  0  0  0  0
  4 26  1  0  0  0  0
 13 27  1  0  0  0  0
 14 28  1  0  0  0  0
 16 29  1  0  0  0  0
 17 30  1  0  0  0  0
 19 31  1  0  0  0  0
 22 32  1  0  0  0  0
 22 33  1  0  0  0  0
 22 34  1  0  0  0  0
 23 35  1  0  0  0  0
 23 36  1  0  0  0  0
 23 37  1  0  0  0  0
M  END
> <Name>
5j

> <IC50[nM]>
7.5

$$$$
5j
  -OEChem-05192314333D
 Structure written by MMmdl.
 37 39  0     0  0  0  0  0  0999 V2000
  -14.7191  -14.7437  -27.6392 C   0  0  0  0  0  0  0  0  0  0  0  0
  -15.2100  -15.5576  -26.6217 C   0  0  0  0  0  0  0  0  0  0  0  0
  -14.8546  -13.3638  -27.5278 C   0  0  0  0  0  0  0  0  0  0  0  0
  -15.8634  -15.0119  -25.5100 C   0  0  0  0  0  0  0  0  0  0  0  0
  -15.0155  -16.9311  -26.7330 N   0  0  0  0  0  0  0  0  0  0  0  0
  -15.4818  -12.8157  -26.4108 C   0  0  0  0  0  0  0  0  0  0  0  0
  -15.9953  -13.6326  -25.3960 C   0  0  0  0  0  0  0  0  0  0  0  0
  -16.4010  -15.9560  -24.4529 C   0  0  0  0  0  0  0  0  0  0  0  0
  -16.1237  -17.2489  -24.7503 N   0  0  0  0  0  0  0  0  0  0  0  0
  -17.0404  -15.6548  -23.4436 O   0  0  0  0  0  0  0  0  0  0  0  0
  -15.4465  -17.7571  -25.8425 C   0  0  0  0  0  0  0  0  0  0  0  0
  -15.2799  -19.2057  -25.9856 C   0  0  0  0  0  0  0  0  0  0  0  0
  -15.7256  -20.0944  -24.9990 C   0  0  0  0  0  0  0  0  0  0  0  0
  -15.5412  -21.4568  -25.1662 C   0  0  0  0  0  0  0  0  0  0  0  0
  -14.9164  -21.9424  -26.3174 C   0  0  0  0  0  0  0  0  0  0  0  0
  -14.4855  -21.0603  -27.3040 C   0  0  0  0  0  0  0  0  0  0  0  0
  -14.6633  -19.7033  -27.1404 C   0  0  0  0  0  0  0  0  0  0  0  0
  -14.5856  -23.4201  -26.4266 C   0  0  0  0  0  0  0  0  0  0  0  0
  -14.2271  -23.8386  -27.7106 O   0  0  0  0  0  0  0  0  0  0  0  0
  -15.5915  -11.4816  -26.3335 F   0  0  0  0  0  0  0  0  0  0  0  0
  -16.6030  -13.1004  -24.3145 F   0  0  0  0  0  0  0  0  0  0  0  0
  -15.7860  -24.3161  -26.1231 C   0  0  0  0  0  0  0  0  0  0  0  0
  -13.3500  -23.6601  -25.5696 C   0  0  0  0  0  0  0  0  0  0  0  0
  -13.6434  -14.9550  -27.7294 H   0  0  0  0  0  0  0  0  0  0  0  0
  -15.2306  -15.0434  -28.5658 H   0  0  0  0  0  0  0  0  0  0  0  0
  -14.4743  -12.7184  -28.3057 H   0  0  0  0  0  0  0  0  0  0  0  0
  -16.2115  -19.7185  -24.1108 H   0  0  0  0  0  0  0  0  0  0  0  0
  -15.8808  -22.1445  -24.4058 H   0  0  0  0  0  0  0  0  0  0  0  0
  -14.0119  -21.4391  -28.1977 H   0  0  0  0  0  0  0  0  0  0  0  0
  -14.3256  -19.0207  -27.9062 H   0  0  0  0  0  0  0  0  0  0  0  0
  -14.0358  -24.7691  -27.6990 H   0  0  0  0  0  0  0  0  0  0  0  0
  -15.4896  -25.3713  -26.2169 H   0  0  0  0  0  0  0  0  0  0  0  0
  -16.1372  -24.1238  -25.0986 H   0  0  0  0  0  0  0  0  0  0  0  0
  -16.5955  -24.0980  -26.8352 H   0  0  0  0  0  0  0  0  0  0  0  0
  -13.0707  -24.7230  -25.6175 H   0  0  0  0  0  0  0  0  0  0  0  0
  -12.5186  -23.0454  -25.9449 H   0  0  0  0  0  0  0  0  0  0  0  0
  -13.5679  -23.3850  -24.5271 H   0  0  0  0  0  0  0  0  0  0  0  0
  1  2  1  0  0  0  0
  1  3  1  0  0  0  0
  2  4  1  0  0  0  0
  2  5  2  0  0  0  0
  3  6  2  0  0  0  0
  4  7  2  0  0  0  0
  4  8  1  0  0  0  0
  5 11  1  0  0  0  0
  6  7  1  0  0  0  0
  6 20  1  0  0  0  0
  7 21  1  0  0  0  0
  8  9  1  0  0  0  0
  8 10  2  0  0  0  0
  9 11  2  0  0  0  0
 11 12  1  0  0  0  0
 12 13  2  0  0  0  0
 12 17  1  0  0  0  0
 13 14  1  0  0  0  0
 14 15  2  0  0  0  0
 15 16  1  0  0  0  0
 15 18  1  0  0  0  0
 16 17  2  0  0  0  0
 18 19  1  0  0  0  0
 18 22  1  0  0  0  0
 18 23  1  0  0  0  0
  1 24  1  0  0  0  0
  1 25  1  0  0  0  0
  3 26  1  0  0  0  0
 13 27  1  0  0  0  0
 14 28  1  0  0  0  0
 16 29  1  0  0  0  0
 17 30  1  0  0  0  0
 19 31  1  0  0  0  0
 22 32  1  0  0  0  0
 22 33  1  0  0  0  0
 22 34  1  0  0  0  0
 23 35  1  0  0  0  0
 23 36  1  0  0  0  0
 23 37  1  0  0  0  0
M  END
> <Name>
5j

> <IC50[nM]>
7.5

$$$$
