8e
  -OEChem-05192314333D
 Structure written by MMmdl.
 45 48  0     1  0  0  0  0  0999 V2000
  -14.7440  -14.5488  -27.6397 C   0  0  0  0  0  0  0  0  0  0  0  0
  -15.2222  -15.4109  -26.6401 C   0  0  0  0  0  0  0  0  0  0  0  0
  -14.8591  -13.1692  -27.4748 C   0  0  0  0  0  0  0  0  0  0  0  0
  -15.8582  -14.8736  -25.5086 C   0  0  0  0  0  0  0  0  0  0  0  0
  -15.0518  -16.8036  -26.7731 N   0  0  0  0  0  0  0  0  0  0  0  0
  -15.4628  -12.6413  -26.3347 C   0  0  0  0  0  0  0  0  0  0  0  0
  -15.9779  -13.4879  -25.3505 C   0  0  0  0  0  0  0  0  0  0  0  0
  -16.4074  -15.8323  -24.4721 C   0  0  0  0  0  0  0  0  0  0  0  0
  -16.1816  -17.1328  -24.8095 N   0  0  0  0  0  0  0  0  0  0  0  0
  -17.0140  -15.5193  -23.4454 O   0  0  0  0  0  0  0  0  0  0  0  0
  -15.4957  -17.6480  -25.8989 C   0  0  0  0  0  0  0  0  0  0  0  0
  -15.3321  -19.1204  -26.0396 C   0  0  0  0  0  0  0  0  0  0  0  0
  -15.8398  -19.9770  -25.0510 C   0  0  0  0  0  0  0  0  0  0  0  0
  -15.6725  -21.3559  -25.1428 C   0  0  0  0  0  0  0  0  0  0  0  0
  -15.0037  -21.9226  -26.2340 C   0  0  0  0  0  0  0  0  0  0  0  0
  -14.5169  -21.0751  -27.2353 C   0  0  0  0  0  0  0  0  0  0  0  0
  -14.6698  -19.6915  -27.1368 C   0  0  0  0  0  0  0  0  0  0  0  0
  -14.1579  -15.0195  -28.7614 F   0  0  0  0  0  0  0  0  0  0  0  0
  -15.5478  -11.2992  -26.1973 F   0  0  0  0  0  0  0  0  0  0  0  0
  -14.7101  -23.4149  -26.2936 C   0  0  1  0  0  0  0  0  0  0  0  0
  -15.9534  -24.1911  -26.7469 C   0  0  0  0  0  0  0  0  0  0  0  0
  -15.6342  -25.6857  -26.9262 C   0  0  0  0  0  0  0  0  0  0  0  0
  -14.5516  -25.8523  -27.9018 N   0  0  1  0  0  0  0  0  0  0  0  0
  -13.3243  -25.2116  -27.4171 C   0  0  0  0  0  0  0  0  0  0  0  0
  -13.5505  -23.6979  -27.2575 C   0  0  0  0  0  0  0  0  0  0  0  0
  -14.2997  -27.2875  -28.1026 C   0  0  0  0  0  0  0  0  0  0  0  0
  -14.4777  -12.5047  -28.2360 H   0  0  0  0  0  0  0  0  0  0  0  0
  -16.4632  -13.0780  -24.4771 H   0  0  0  0  0  0  0  0  0  0  0  0
  -16.5646  -17.8117  -24.1830 H   0  0  0  0  0  0  0  0  0  0  0  0
  -16.3682  -19.5603  -24.2063 H   0  0  0  0  0  0  0  0  0  0  0  0
  -16.0626  -21.9948  -24.3643 H   0  0  0  0  0  0  0  0  0  0  0  0
  -14.0168  -21.4968  -28.0947 H   0  0  0  0  0  0  0  0  0  0  0  0
  -14.2742  -19.0536  -27.9133 H   0  0  0  0  0  0  0  0  0  0  0  0
  -14.4256  -23.7611  -25.2890 H   0  0  0  0  0  0  0  0  0  0  0  0
  -16.7431  -24.0801  -25.9892 H   0  0  0  0  0  0  0  0  0  0  0  0
  -16.3044  -23.7806  -27.7052 H   0  0  0  0  0  0  0  0  0  0  0  0
  -15.3232  -26.1105  -25.9604 H   0  0  0  0  0  0  0  0  0  0  0  0
  -16.5323  -26.2098  -27.2851 H   0  0  0  0  0  0  0  0  0  0  0  0
  -13.0474  -25.6434  -26.4440 H   0  0  0  0  0  0  0  0  0  0  0  0
  -12.5129  -25.3848  -28.1393 H   0  0  0  0  0  0  0  0  0  0  0  0
  -13.7853  -23.2635  -28.2404 H   0  0  0  0  0  0  0  0  0  0  0  0
  -12.6334  -23.2366  -26.8624 H   0  0  0  0  0  0  0  0  0  0  0  0
  -13.4884  -27.4191  -28.8336 H   0  0  0  0  0  0  0  0  0  0  0  0
  -14.0090  -27.7460  -27.1459 H   0  0  0  0  0  0  0  0  0  0  0  0
  -15.2136  -27.7710  -28.4782 H   0  0  0  0  0  0  0  0  0  0  0  0
  1  2  2  0  0  0  0
  1  3  1  0  0  0  0
  1 18  1  0  0  0  0
  2  4  1  0  0  0  0
  2  5  1  0  0  0  0
  3  6  2  0  0  0  0
  4  7  2  0  0  0  0
  4  8  1  0  0  0  0
  5 11  2  0  0  0  0
  6  7  1  0  0  0  0
  6 19  1  0  0  0  0
  8  9  1  0  0  0  0
  8 10  2  0  0  0  0
  9 11  1  0  0  0  0
 11 12  1  0  0  0  0
 12 13  2  0  0  0  0
 12 17  1  0  0  0  0
 13 14  1  0  0  0  0
 14 15  2  0  0  0  0
 15 16  1  0  0  0  0
 15 20  1  0  0  0  0
 16 17  2  0  0  0  0
 20 21  1  0  0  0  0
 20 25  1  0  0  0  0
 21 22  1  0  0  0  0
 22 23  1  0  0  0  0
 23 24  1  0  0  0  0
 23 26  1  0  0  0  0
 24 25  1  0  0  0  0
  3 27  1  0  0  0  0
  7 28  1  0  0  0  0
  9 29  1  0  0  0  0
 13 30  1  0  0  0  0
 14 31  1  0  0  0  0
 16 32  1  0  0  0  0
 17 33  1  0  0  0  0
 20 34  1  0  0  0  0
 21 35  1  0  0  0  0
 21 36  1  0  0  0  0
 22 37  1  0  0  0  0
 22 38  1  0  0  0  0
 24 39  1  0  0  0  0
 24 40  1  0  0  0  0
 25 41  1  0  0  0  0
 25 42  1  0  0  0  0
 26 43  1  0  0  0  0
 26 44  1  0  0  0  0
 26 45  1  0  0  0  0
M  END
> <Name>
8e

> <IC50[nM]>
31

$$$$
8e
  -OEChem-05192314333D
 Structure written by MMmdl.
 45 48  0     1  0  0  0  0  0999 V2000
  -14.7440  -14.5488  -27.6397 C   0  0  0  0  0  0  0  0  0  0  0  0
  -15.2222  -15.4109  -26.6401 C   0  0  0  0  0  0  0  0  0  0  0  0
  -14.8591  -13.1692  -27.4748 C   0  0  0  0  0  0  0  0  0  0  0  0
  -15.8582  -14.8736  -25.5086 C   0  0  0  0  0  0  0  0  0  0  0  0
  -15.0518  -16.8036  -26.7731 N   0  0  0  0  0  0  0  0  0  0  0  0
  -15.4628  -12.6413  -26.3347 C   0  0  0  0  0  0  0  0  0  0  0  0
  -15.9779  -13.4879  -25.3505 C   0  0  0  0  0  0  0  0  0  0  0  0
  -16.4074  -15.8323  -24.4721 C   0  0  0  0  0  0  0  0  0  0  0  0
  -16.1816  -17.1328  -24.8095 N   0  0  0  0  0  0  0  0  0  0  0  0
  -17.0140  -15.5193  -23.4454 O   0  0  0  0  0  0  0  0  0  0  0  0
  -15.4957  -17.6480  -25.8989 C   0  0  0  0  0  0  0  0  0  0  0  0
  -15.3321  -19.1204  -26.0396 C   0  0  0  0  0  0  0  0  0  0  0  0
  -15.8398  -19.9770  -25.0510 C   0  0  0  0  0  0  0  0  0  0  0  0
  -15.6725  -21.3559  -25.1428 C   0  0  0  0  0  0  0  0  0  0  0  0
  -15.0037  -21.9226  -26.2340 C   0  0  0  0  0  0  0  0  0  0  0  0
  -14.5169  -21.0751  -27.2353 C   0  0  0  0  0  0  0  0  0  0  0  0
  -14.6698  -19.6915  -27.1368 C   0  0  0  0  0  0  0  0  0  0  0  0
  -14.1579  -15.0195  -28.7614 F   0  0  0  0  0  0  0  0  0  0  0  0
  -15.5478  -11.2992  -26.1973 F   0  0  0  0  0  0  0  0  0  0  0  0
  -14.7101  -23.4149  -26.2936 C   0  0  1  0  0  0  0  0  0  0  0  0
  -15.9534  -24.1911  -26.7469 C   0  0  0  0  0  0  0  0  0  0  0  0
  -15.6342  -25.6857  -26.9262 C   0  0  0  0  0  0  0  0  0  0  0  0
  -14.5516  -25.8523  -27.9018 N   0  0  1  0  0  0  0  0  0  0  0  0
  -13.3243  -25.2116  -27.4171 C   0  0  0  0  0  0  0  0  0  0  0  0
  -13.5505  -23.6979  -27.2575 C   0  0  0  0  0  0  0  0  0  0  0  0
  -14.2997  -27.2875  -28.1026 C   0  0  0  0  0  0  0  0  0  0  0  0
  -14.4777  -12.5047  -28.2360 H   0  0  0  0  0  0  0  0  0  0  0  0
  -14.5683  -17.1533  -27.5755 H   0  0  0  0  0  0  0  0  0  0  0  0
  -16.4632  -13.0780  -24.4771 H   0  0  0  0  0  0  0  0  0  0  0  0
  -16.3682  -19.5603  -24.2063 H   0  0  0  0  0  0  0  0  0  0  0  0
  -16.0626  -21.9948  -24.3643 H   0  0  0  0  0  0  0  0  0  0  0  0
  -14.0168  -21.4968  -28.0947 H   0  0  0  0  0  0  0  0  0  0  0  0
  -14.2742  -19.0536  -27.9133 H   0  0  0  0  0  0  0  0  0  0  0  0
  -14.4256  -23.7611  -25.2890 H   0  0  0  0  0  0  0  0  0  0  0  0
  -16.7431  -24.0801  -25.9892 H   0  0  0  0  0  0  0  0  0  0  0  0
  -16.3044  -23.7806  -27.7052 H   0  0  0  0  0  0  0  0  0  0  0  0
  -15.3232  -26.1105  -25.9604 H   0  0  0  0  0  0  0  0  0  0  0  0
  -16.5323  -26.2098  -27.2851 H   0  0  0  0  0  0  0  0  0  0  0  0
  -13.0474  -25.6434  -26.4440 H   0  0  0  0  0  0  0  0  0  0  0  0
  -12.5129  -25.3848  -28.1393 H   0  0  0  0  0  0  0  0  0  0  0  0
  -13.7853  -23.2635  -28.2404 H   0  0  0  0  0  0  0  0  0  0  0  0
  -12.6334  -23.2366  -26.8624 H   0  0  0  0  0  0  0  0  0  0  0  0
  -13.4884  -27.4191  -28.8336 H   0  0  0  0  0  0  0  0  0  0  0  0
  -14.0090  -27.7460  -27.1459 H   0  0  0  0  0  0  0  0  0  0  0  0
  -15.2136  -27.7710  -28.4782 H   0  0  0  0  0  0  0  0  0  0  0  0
  1  2  2  0  0  0  0
  1  3  1  0  0  0  0
  1 18  1  0  0  0  0
  2  4  1  0  0  0  0
  2  5  1  0  0  0  0
  3  6  2  0  0  0  0
  4  7  2  0  0  0  0
  4  8  1  0  0  0  0
  5 11  1  0  0  0  0
  6  7  1  0  0  0  0
  6 19  1  0  0  0  0
  8  9  1  0  0  0  0
  8 10  2  0  0  0  0
  9 11  2  0  0  0  0
 11 12  1  0  0  0  0
 12 13  2  0  0  0  0
 12 17  1  0  0  0  0
 13 14  1  0  0  0  0
 14 15  2  0  0  0  0
 15 16  1  0  0  0  0
 15 20  1  0  0  0  0
 16 17  2  0  0  0  0
 20 21  1  0  0  0  0
 20 25  1  0  0  0  0
 21 22  1  0  0  0  0
 22 23  1  0  0  0  0
 23 24  1  0  0  0  0
 23 26  1  0  0  0  0
 24 25  1  0  0  0  0
  3 27  1  0  0  0  0
  5 28  1  0  0  0  0
  7 29  1  0  0  0  0
 13 30  1  0  0  0  0
 14 31  1  0  0  0  0
 16 32  1  0  0  0  0
 17 33  1  0  0  0  0
 20 34  1  0  0  0  0
 21 35  1  0  0  0  0
 21 36  1  0  0  0  0
 22 37  1  0  0  0  0
 22 38  1  0  0  0  0
 24 39  1  0  0  0  0
 24 40  1  0  0  0  0
 25 41  1  0  0  0  0
 25 42  1  0  0  0  0
 26 43  1  0  0  0  0
 26 44  1  0  0  0  0
 26 45  1  0  0  0  0
M  END
> <Name>
8e

> <IC50[nM]>
31

$$$$
8e
  -OEChem-05192314333D
 Structure written by MMmdl.
 45 48  0     1  0  0  0  0  0999 V2000
  -14.7440  -14.5488  -27.6397 C   0  0  0  0  0  0  0  0  0  0  0  0
  -15.2222  -15.4109  -26.6401 C   0  0  0  0  0  0  0  0  0  0  0  0
  -14.8591  -13.1692  -27.4748 C   0  0  0  0  0  0  0  0  0  0  0  0
  -15.8582  -14.8736  -25.5086 C   0  0  0  0  0  0  0  0  0  0  0  0
  -15.0518  -16.8036  -26.7731 N   0  0  0  0  0  0  0  0  0  0  0  0
  -15.4628  -12.6413  -26.3347 C   0  0  0  0  0  0  0  0  0  0  0  0
  -15.9779  -13.4879  -25.3505 C   0  0  0  0  0  0  0  0  0  0  0  0
  -16.4074  -15.8323  -24.4721 C   0  0  0  0  0  0  0  0  0  0  0  0
  -16.1816  -17.1328  -24.8095 N   0  0  0  0  0  0  0  0  0  0  0  0
  -17.0140  -15.5193  -23.4454 O   0  0  0  0  0  0  0  0  0  0  0  0
  -15.4957  -17.6480  -25.8989 C   0  0  0  0  0  0  0  0  0  0  0  0
  -15.3321  -19.1204  -26.0396 C   0  0  0  0  0  0  0  0  0  0  0  0
  -15.8398  -19.9770  -25.0510 C   0  0  0  0  0  0  0  0  0  0  0  0
  -15.6725  -21.3559  -25.1428 C   0  0  0  0  0  0  0  0  0  0  0  0
  -15.0037  -21.9226  -26.2340 C   0  0  0  0  0  0  0  0  0  0  0  0
  -14.5169  -21.0751  -27.2353 C   0  0  0  0  0  0  0  0  0  0  0  0
  -14.6698  -19.6915  -27.1368 C   0  0  0  0  0  0  0  0  0  0  0  0
  -14.1579  -15.0195  -28.7614 F   0  0  0  0  0  0  0  0  0  0  0  0
  -15.5478  -11.2992  -26.1973 F   0  0  0  0  0  0  0  0  0  0  0  0
  -14.7101  -23.4149  -26.2936 C   0  0  1  0  0  0  0  0  0  0  0  0
  -15.9534  -24.1911  -26.7469 C   0  0  0  0  0  0  0  0  0  0  0  0
  -15.6342  -25.6857  -26.9262 C   0  0  0  0  0  0  0  0  0  0  0  0
  -14.5516  -25.8523  -27.9018 N   0  0  1  0  0  0  0  0  0  0  0  0
  -13.3243  -25.2116  -27.4171 C   0  0  0  0  0  0  0  0  0  0  0  0
  -13.5505  -23.6979  -27.2575 C   0  0  0  0  0  0  0  0  0  0  0  0
  -14.2997  -27.2875  -28.1026 C   0  0  0  0  0  0  0  0  0  0  0  0
  -14.4777  -12.5047  -28.2360 H   0  0  0  0  0  0  0  0  0  0  0  0
  -16.4632  -13.0780  -24.4771 H   0  0  0  0  0  0  0  0  0  0  0  0
  -17.2704  -16.3048  -22.9766 H   0  0  0  0  0  0  0  0  0  0  0  0
  -16.3682  -19.5603  -24.2063 H   0  0  0  0  0  0  0  0  0  0  0  0
  -16.0626  -21.9948  -24.3643 H   0  0  0  0  0  0  0  0  0  0  0  0
  -14.0168  -21.4968  -28.0947 H   0  0  0  0  0  0  0  0  0  0  0  0
  -14.2742  -19.0536  -27.9133 H   0  0  0  0  0  0  0  0  0  0  0  0
  -14.4256  -23.7611  -25.2890 H   0  0  0  0  0  0  0  0  0  0  0  0
  -16.7431  -24.0801  -25.9892 H   0  0  0  0  0  0  0  0  0  0  0  0
  -16.3044  -23.7806  -27.7052 H   0  0  0  0  0  0  0  0  0  0  0  0
  -15.3232  -26.1105  -25.9604 H   0  0  0  0  0  0  0  0  0  0  0  0
  -16.5323  -26.2098  -27.2851 H   0  0  0  0  0  0  0  0  0  0  0  0
  -13.0474  -25.6434  -26.4440 H   0  0  0  0  0  0  0  0  0  0  0  0
  -12.5129  -25.3848  -28.1393 H   0  0  0  0  0  0  0  0  0  0  0  0
  -13.7853  -23.2635  -28.2404 H   0  0  0  0  0  0  0  0  0  0  0  0
  -12.6334  -23.2366  -26.8624 H   0  0  0  0  0  0  0  0  0  0  0  0
  -13.4884  -27.4191  -28.8336 H   0  0  0  0  0  0  0  0  0  0  0  0
  -14.0090  -27.7460  -27.1459 H   0  0  0  0  0  0  0  0  0  0  0  0
  -15.2136  -27.7710  -28.4782 H   0  0  0  0  0  0  0  0  0  0  0  0
  1  2  2  0  0  0  0
  1  3  1  0  0  0  0
  1 18  1  0  0  0  0
  2  4  1  0  0  0  0
  2  5  1  0  0  0  0
  3  6  2  0  0  0  0
  4  7  2  0  0  0  0
  4  8  1  0  0  0  0
  5 11  2  0  0  0  0
  6  7  1  0  0  0  0
  6 19  1  0  0  0  0
  8  9  2  0  0  0  0
  8 10  1  0  0  0  0
  9 11  1  0  0  0  0
 11 12  1  0  0  0  0
 12 13  2  0  0  0  0
 12 17  1  0  0  0  0
 13 14  1  0  0  0  0
 14 15  2  0  0  0  0
 15 16  1  0  0  0  0
 15 20  1  0  0  0  0
 16 17  2  0  0  0  0
 20 21  1  0  0  0  0
 20 25  1  0  0  0  0
 21 22  1  0  0  0  0
 22 23  1  0  0  0  0
 23 24  1  0  0  0  0
 23 26  1  0  0  0  0
 24 25  1  0  0  0  0
  3 27  1  0  0  0  0
  7 28  1  0  0  0  0
 10 29  1  0  0  0  0
 13 30  1  0  0  0  0
 14 31  1  0  0  0  0
 16 32  1  0  0  0  0
 17 33  1  0  0  0  0
 20 34  1  0  0  0  0
 21 35  1  0  0  0  0
 21 36  1  0  0  0  0
 22 37  1  0  0  0  0
 22 38  1  0  0  0  0
 24 39  1  0  0  0  0
 24 40  1  0  0  0  0
 25 41  1  0  0  0  0
 25 42  1  0  0  0  0
 26 43  1  0  0  0  0
 26 44  1  0  0  0  0
 26 45  1  0  0  0  0
M  END
> <Name>
8e

> <IC50[nM]>
31

$$$$
8e
  -OEChem-05192314333D
 Structure written by MMmdl.
 45 48  0     1  0  0  0  0  0999 V2000
  -14.7440  -14.5488  -27.6397 C   0  0  0  0  0  0  0  0  0  0  0  0
  -15.2222  -15.4109  -26.6401 C   0  0  0  0  0  0  0  0  0  0  0  0
  -14.8591  -13.1692  -27.4748 C   0  0  0  0  0  0  0  0  0  0  0  0
  -15.8582  -14.8736  -25.5086 C   0  0  0  0  0  0  0  0  0  0  0  0
  -15.0518  -16.8036  -26.7731 N   0  0  0  0  0  0  0  0  0  0  0  0
  -15.4628  -12.6413  -26.3347 C   0  0  0  0  0  0  0  0  0  0  0  0
  -15.9779  -13.4879  -25.3505 C   0  0  0  0  0  0  0  0  0  0  0  0
  -16.4074  -15.8323  -24.4721 C   0  0  0  0  0  0  0  0  0  0  0  0
  -16.1816  -17.1328  -24.8095 N   0  0  0  0  0  0  0  0  0  0  0  0
  -17.0140  -15.5193  -23.4454 O   0  0  0  0  0  0  0  0  0  0  0  0
  -15.4957  -17.6480  -25.8989 C   0  0  0  0  0  0  0  0  0  0  0  0
  -15.3321  -19.1204  -26.0396 C   0  0  0  0  0  0  0  0  0  0  0  0
  -15.8398  -19.9770  -25.0510 C   0  0  0  0  0  0  0  0  0  0  0  0
  -15.6725  -21.3559  -25.1428 C   0  0  0  0  0  0  0  0  0  0  0  0
  -15.0037  -21.9226  -26.2340 C   0  0  0  0  0  0  0  0  0  0  0  0
  -14.5169  -21.0751  -27.2353 C   0  0  0  0  0  0  0  0  0  0  0  0
  -14.6698  -19.6915  -27.1368 C   0  0  0  0  0  0  0  0  0  0  0  0
  -14.1579  -15.0195  -28.7614 F   0  0  0  0  0  0  0  0  0  0  0  0
  -15.5478  -11.2992  -26.1973 F   0  0  0  0  0  0  0  0  0  0  0  0
  -14.7101  -23.4149  -26.2936 C   0  0  1  0  0  0  0  0  0  0  0  0
  -15.9534  -24.1911  -26.7469 C   0  0  0  0  0  0  0  0  0  0  0  0
  -15.6342  -25.6857  -26.9262 C   0  0  0  0  0  0  0  0  0  0  0  0
  -14.5516  -25.8523  -27.9018 N   0  0  1  0  0  0  0  0  0  0  0  0
  -13.3243  -25.2116  -27.4171 C   0  0  0  0  0  0  0  0  0  0  0  0
  -13.5505  -23.6979  -27.2575 C   0  0  0  0  0  0  0  0  0  0  0  0
  -14.2997  -27.2875  -28.1026 C   0  0  0  0  0  0  0  0  0  0  0  0
  -14.4777  -12.5047  -28.2360 H   0  0  0  0  0  0  0  0  0  0  0  0
  -14.4900  -12.6338  -25.8212 H   0  0  0  0  0  0  0  0  0  0  0  0
  -16.4632  -13.0780  -24.4771 H   0  0  0  0  0  0  0  0  0  0  0  0
  -16.3682  -19.5603  -24.2063 H   0  0  0  0  0  0  0  0  0  0  0  0
  -16.0626  -21.9948  -24.3643 H   0  0  0  0  0  0  0  0  0  0  0  0
  -14.0168  -21.4968  -28.0947 H   0  0  0  0  0  0  0  0  0  0  0  0
  -14.2742  -19.0536  -27.9133 H   0  0  0  0  0  0  0  0  0  0  0  0
  -14.4256  -23.7611  -25.2890 H   0  0  0  0  0  0  0  0  0  0  0  0
  -16.7431  -24.0801  -25.9892 H   0  0  0  0  0  0  0  0  0  0  0  0
  -16.3044  -23.7806  -27.7052 H   0  0  0  0  0  0  0  0  0  0  0  0
  -15.3232  -26.1105  -25.9604 H   0  0  0  0  0  0  0  0  0  0  0  0
  -16.5323  -26.2098  -27.2851 H   0  0  0  0  0  0  0  0  0  0  0  0
  -13.0474  -25.6434  -26.4440 H   0  0  0  0  0  0  0  0  0  0  0  0
  -12.5129  -25.3848  -28.1393 H   0  0  0  0  0  0  0  0  0  0  0  0
  -13.7853  -23.2635  -28.2404 H   0  0  0  0  0  0  0  0  0  0  0  0
  -12.6334  -23.2366  -26.8624 H   0  0  0  0  0  0  0  0  0  0  0  0
  -13.4884  -27.4191  -28.8336 H   0  0  0  0  0  0  0  0  0  0  0  0
  -14.0090  -27.7460  -27.1459 H   0  0  0  0  0  0  0  0  0  0  0  0
  -15.2136  -27.7710  -28.4782 H   0  0  0  0  0  0  0  0  0  0  0  0
  1  2  1  0  0  0  0
  1  3  2  0  0  0  0
  1 18  1  0  0  0  0
  2  4  1  0  0  0  0
  2  5  2  0  0  0  0
  3  6  1  0  0  0  0
  4  7  2  0  0  0  0
  4  8  1  0  0  0  0
  5 11  1  0  0  0  0
  6  7  1  0  0  0  0
  6 19  1  0  0  0  0
  8  9  1  0  0  0  0
  8 10  2  0  0  0  0
  9 11  2  0  0  0  0
 11 12  1  0  0  0  0
 12 13  2  0  0  0  0
 12 17  1  0  0  0  0
 13 14  1  0  0  0  0
 14 15  2  0  0  0  0
 15 16  1  0  0  0  0
 15 20  1  0  0  0  0
 16 17  2  0  0  0  0
 20 21  1  0  0  0  0
 20 25  1  0  0  0  0
 21 22  1  0  0  0  0
 22 23  1  0  0  0  0
 23 24  1  0  0  0  0
 23 26  1  0  0  0  0
 24 25  1  0  0  0  0
  3 27  1  0  0  0  0
  6 28  1  0  0  0  0
  7 29  1  0  0  0  0
 13 30  1  0  0  0  0
 14 31  1  0  0  0  0
 16 32  1  0  0  0  0
 17 33  1  0  0  0  0
 20 34  1  0  0  0  0
 21 35  1  0  0  0  0
 21 36  1  0  0  0  0
 22 37  1  0  0  0  0
 22 38  1  0  0  0  0
 24 39  1  0  0  0  0
 24 40  1  0  0  0  0
 25 41  1  0  0  0  0
 25 42  1  0  0  0  0
 26 43  1  0  0  0  0
 26 44  1  0  0  0  0
 26 45  1  0  0  0  0
M  END
> <Name>
8e

> <IC50[nM]>
31

$$$$
8e
  -OEChem-05192314333D
 Structure written by MMmdl.
 45 48  0     1  0  0  0  0  0999 V2000
  -14.7440  -14.5488  -27.6397 C   0  0  0  0  0  0  0  0  0  0  0  0
  -15.2222  -15.4109  -26.6401 C   0  0  0  0  0  0  0  0  0  0  0  0
  -14.8591  -13.1692  -27.4748 C   0  0  0  0  0  0  0  0  0  0  0  0
  -15.8582  -14.8736  -25.5086 C   0  0  0  0  0  0  0  0  0  0  0  0
  -15.0518  -16.8036  -26.7731 N   0  0  0  0  0  0  0  0  0  0  0  0
  -15.4628  -12.6413  -26.3347 C   0  0  0  0  0  0  0  0  0  0  0  0
  -15.9779  -13.4879  -25.3505 C   0  0  0  0  0  0  0  0  0  0  0  0
  -16.4074  -15.8323  -24.4721 C   0  0  0  0  0  0  0  0  0  0  0  0
  -16.1816  -17.1328  -24.8095 N   0  0  0  0  0  0  0  0  0  0  0  0
  -17.0140  -15.5193  -23.4454 O   0  0  0  0  0  0  0  0  0  0  0  0
  -15.4957  -17.6480  -25.8989 C   0  0  0  0  0  0  0  0  0  0  0  0
  -15.3321  -19.1204  -26.0396 C   0  0  0  0  0  0  0  0  0  0  0  0
  -15.8398  -19.9770  -25.0510 C   0  0  0  0  0  0  0  0  0  0  0  0
  -15.6725  -21.3559  -25.1428 C   0  0  0  0  0  0  0  0  0  0  0  0
  -15.0037  -21.9226  -26.2340 C   0  0  0  0  0  0  0  0  0  0  0  0
  -14.5169  -21.0751  -27.2353 C   0  0  0  0  0  0  0  0  0  0  0  0
  -14.6698  -19.6915  -27.1368 C   0  0  0  0  0  0  0  0  0  0  0  0
  -14.1579  -15.0195  -28.7614 F   0  0  0  0  0  0  0  0  0  0  0  0
  -15.5478  -11.2992  -26.1973 F   0  0  0  0  0  0  0  0  0  0  0  0
  -14.7101  -23.4149  -26.2936 C   0  0  1  0  0  0  0  0  0  0  0  0
  -15.9534  -24.1911  -26.7469 C   0  0  0  0  0  0  0  0  0  0  0  0
  -15.6342  -25.6857  -26.9262 C   0  0  0  0  0  0  0  0  0  0  0  0
  -14.5516  -25.8523  -27.9018 N   0  0  1  0  0  0  0  0  0  0  0  0
  -13.3243  -25.2116  -27.4171 C   0  0  0  0  0  0  0  0  0  0  0  0
  -13.5505  -23.6979  -27.2575 C   0  0  0  0  0  0  0  0  0  0  0  0
  -14.2997  -27.2875  -28.1026 C   0  0  0  0  0  0  0  0  0  0  0  0
  -15.7250  -14.5750  -28.1367 H   0  0  0  0  0  0  0  0  0  0  0  0
  -14.4777  -12.5047  -28.2360 H   0  0  0  0  0  0  0  0  0  0  0  0
  -16.4632  -13.0780  -24.4771 H   0  0  0  0  0  0  0  0  0  0  0  0
  -16.3682  -19.5603  -24.2063 H   0  0  0  0  0  0  0  0  0  0  0  0
  -16.0626  -21.9948  -24.3643 H   0  0  0  0  0  0  0  0  0  0  0  0
  -14.0168  -21.4968  -28.0947 H   0  0  0  0  0  0  0  0  0  0  0  0
  -14.2742  -19.0536  -27.9133 H   0  0  0  0  0  0  0  0  0  0  0  0
  -14.4256  -23.7611  -25.2890 H   0  0  0  0  0  0  0  0  0  0  0  0
  -16.7431  -24.0801  -25.9892 H   0  0  0  0  0  0  0  0  0  0  0  0
  -16.3044  -23.7806  -27.7052 H   0  0  0  0  0  0  0  0  0  0  0  0
  -15.3232  -26.1105  -25.9604 H   0  0  0  0  0  0  0  0  0  0  0  0
  -16.5323  -26.2098  -27.2851 H   0  0  0  0  0  0  0  0  0  0  0  0
  -13.0474  -25.6434  -26.4440 H   0  0  0  0  0  0  0  0  0  0  0  0
  -12.5129  -25.3848  -28.1393 H   0  0  0  0  0  0  0  0  0  0  0  0
  -13.7853  -23.2635  -28.2404 H   0  0  0  0  0  0  0  0  0  0  0  0
  -12.6334  -23.2366  -26.8624 H   0  0  0  0  0  0  0  0  0  0  0  0
  -13.4884  -27.4191  -28.8336 H   0  0  0  0  0  0  0  0  0  0  0  0
  -14.0090  -27.7460  -27.1459 H   0  0  0  0  0  0  0  0  0  0  0  0
  -15.2136  -27.7710  -28.4782 H   0  0  0  0  0  0  0  0  0  0  0  0
  1  2  1  0  0  0  0
  1  3  1  0  0  0  0
  1 18  1  0  0  0  0
  2  4  1  0  0  0  0
  2  5  2  0  0  0  0
  3  6  2  0  0  0  0
  4  7  2  0  0  0  0
  4  8  1  0  0  0  0
  5 11  1  0  0  0  0
  6  7  1  0  0  0  0
  6 19  1  0  0  0  0
  8  9  1  0  0  0  0
  8 10  2  0  0  0  0
  9 11  2  0  0  0  0
 11 12  1  0  0  0  0
 12 13  2  0  0  0  0
 12 17  1  0  0  0  0
 13 14  1  0  0  0  0
 14 15  2  0  0  0  0
 15 16  1  0  0  0  0
 15 20  1  0  0  0  0
 16 17  2  0  0  0  0
 20 21  1  0  0  0  0
 20 25  1  0  0  0  0
 21 22  1  0  0  0  0
 22 23  1  0  0  0  0
 23 24  1  0  0  0  0
 23 26  1  0  0  0  0
 24 25  1  0  0  0  0
  1 27  1  0  0  0  0
  3 28  1  0  0  0  0
  7 29  1  0  0  0  0
 13 30  1  0  0  0  0
 14 31  1  0  0  0  0
 16 32  1  0  0  0  0
 17 33  1  0  0  0  0
 20 34  1  0  0  0  0
 21 35  1  0  0  0  0
 21 36  1  0  0  0  0
 22 37  1  0  0  0  0
 22 38  1  0  0  0  0
 24 39  1  0  0  0  0
 24 40  1  0  0  0  0
 25 41  1  0  0  0  0
 25 42  1  0  0  0  0
 26 43  1  0  0  0  0
 26 44  1  0  0  0  0
 26 45  1  0  0  0  0
M  END
> <Name>
8e

> <IC50[nM]>
31

$$$$
8e
  -OEChem-05192314333D
 Structure written by MMmdl.
 45 48  0     1  0  0  0  0  0999 V2000
  -14.7440  -14.5488  -27.6397 C   0  0  0  0  0  0  0  0  0  0  0  0
  -15.2222  -15.4109  -26.6401 C   0  0  0  0  0  0  0  0  0  0  0  0
  -14.8591  -13.1692  -27.4748 C   0  0  0  0  0  0  0  0  0  0  0  0
  -15.8582  -14.8736  -25.5086 C   0  0  0  0  0  0  0  0  0  0  0  0
  -15.0518  -16.8036  -26.7731 N   0  0  0  0  0  0  0  0  0  0  0  0
  -15.4628  -12.6413  -26.3347 C   0  0  0  0  0  0  0  0  0  0  0  0
  -15.9779  -13.4879  -25.3505 C   0  0  0  0  0  0  0  0  0  0  0  0
  -16.4074  -15.8323  -24.4721 C   0  0  0  0  0  0  0  0  0  0  0  0
  -16.1816  -17.1328  -24.8095 N   0  0  0  0  0  0  0  0  0  0  0  0
  -17.0140  -15.5193  -23.4454 O   0  0  0  0  0  0  0  0  0  0  0  0
  -15.4957  -17.6480  -25.8989 C   0  0  0  0  0  0  0  0  0  0  0  0
  -15.3321  -19.1204  -26.0396 C   0  0  0  0  0  0  0  0  0  0  0  0
  -15.8398  -19.9770  -25.0510 C   0  0  0  0  0  0  0  0  0  0  0  0
  -15.6725  -21.3559  -25.1428 C   0  0  0  0  0  0  0  0  0  0  0  0
  -15.0037  -21.9226  -26.2340 C   0  0  0  0  0  0  0  0  0  0  0  0
  -14.5169  -21.0751  -27.2353 C   0  0  0  0  0  0  0  0  0  0  0  0
  -14.6698  -19.6915  -27.1368 C   0  0  0  0  0  0  0  0  0  0  0  0
  -14.1579  -15.0195  -28.7614 F   0  0  0  0  0  0  0  0  0  0  0  0
  -15.5478  -11.2992  -26.1973 F   0  0  0  0  0  0  0  0  0  0  0  0
  -14.7101  -23.4149  -26.2936 C   0  0  1  0  0  0  0  0  0  0  0  0
  -15.9534  -24.1911  -26.7469 C   0  0  0  0  0  0  0  0  0  0  0  0
  -15.6342  -25.6857  -26.9262 C   0  0  0  0  0  0  0  0  0  0  0  0
  -14.5516  -25.8523  -27.9018 N   0  0  1  0  0  0  0  0  0  0  0  0
  -13.3243  -25.2116  -27.4171 C   0  0  0  0  0  0  0  0  0  0  0  0
  -13.5505  -23.6979  -27.2575 C   0  0  0  0  0  0  0  0  0  0  0  0
  -14.2997  -27.2875  -28.1026 C   0  0  0  0  0  0  0  0  0  0  0  0
  -14.4777  -12.5047  -28.2360 H   0  0  0  0  0  0  0  0  0  0  0  0
  -14.8951  -14.8511  -24.9777 H   0  0  0  0  0  0  0  0  0  0  0  0
  -16.4632  -13.0780  -24.4771 H   0  0  0  0  0  0  0  0  0  0  0  0
  -16.3682  -19.5603  -24.2063 H   0  0  0  0  0  0  0  0  0  0  0  0
  -16.0626  -21.9948  -24.3643 H   0  0  0  0  0  0  0  0  0  0  0  0
  -14.0168  -21.4968  -28.0947 H   0  0  0  0  0  0  0  0  0  0  0  0
  -14.2742  -19.0536  -27.9133 H   0  0  0  0  0  0  0  0  0  0  0  0
  -14.4256  -23.7611  -25.2890 H   0  0  0  0  0  0  0  0  0  0  0  0
  -16.7431  -24.0801  -25.9892 H   0  0  0  0  0  0  0  0  0  0  0  0
  -16.3044  -23.7806  -27.7052 H   0  0  0  0  0  0  0  0  0  0  0  0
  -15.3232  -26.1105  -25.9604 H   0  0  0  0  0  0  0  0  0  0  0  0
  -16.5323  -26.2098  -27.2851 H   0  0  0  0  0  0  0  0  0  0  0  0
  -13.0474  -25.6434  -26.4440 H   0  0  0  0  0  0  0  0  0  0  0  0
  -12.5129  -25.3848  -28.1393 H   0  0  0  0  0  0  0  0  0  0  0  0
  -13.7853  -23.2635  -28.2404 H   0  0  0  0  0  0  0  0  0  0  0  0
  -12.6334  -23.2366  -26.8624 H   0  0  0  0  0  0  0  0  0  0  0  0
  -13.4884  -27.4191  -28.8336 H   0  0  0  0  0  0  0  0  0  0  0  0
  -14.0090  -27.7460  -27.1459 H   0  0  0  0  0  0  0  0  0  0  0  0
  -15.2136  -27.7710  -28.4782 H   0  0  0  0  0  0  0  0  0  0  0  0
  1  2  1  0  0  0  0
  1  3  2  0  0  0  0
  1 18  1  0  0  0  0
  2  4  1  0  0  0  0
  2  5  2  0  0  0  0
  3  6  1  0  0  0  0
  4  7  1  0  0  0  0
  4  8  1  0  0  0  0
  5 11  1  0  0  0  0
  6  7  2  0  0  0  0
  6 19  1  0  0  0  0
  8  9  1  0  0  0  0
  8 10  2  0  0  0  0
  9 11  2  0  0  0  0
 11 12  1  0  0  0  0
 12 13  2  0  0  0  0
 12 17  1  0  0  0  0
 13 14  1  0  0  0  0
 14 15  2  0  0  0  0
 15 16  1  0  0  0  0
 15 20  1  0  0  0  0
 16 17  2  0  0  0  0
 20 21  1  0  0  0  0
 20 25  1  0  0  0  0
 21 22  1  0  0  0  0
 22 23  1  0  0  0  0
 23 24  1  0  0  0  0
 23 26  1  0  0  0  0
 24 25  1  0  0  0  0
  3 27  1  0  0  0  0
  4 28  1  0  0  0  0
  7 29  1  0  0  0  0
 13 30  1  0  0  0  0
 14 31  1  0  0  0  0
 16 32  1  0  0  0  0
 17 33  1  0  0  0  0
 20 34  1  0  0  0  0
 21 35  1  0  0  0  0
 21 36  1  0  0  0  0
 22 37  1  0  0  0  0
 22 38  1  0  0  0  0
 24 39  1  0  0  0  0
 24 40  1  0  0  0  0
 25 41  1  0  0  0  0
 25 42  1  0  0  0  0
 26 43  1  0  0  0  0
 26 44  1  0  0  0  0
 26 45  1  0  0  0  0
M  END
> <Name>
8e

> <IC50[nM]>
31

$$$$
