5i
  -OEChem-05192314333D
 Structure written by MMmdl.
 40 42  0     0  0  0  0  0  0999 V2000
  -14.6297  -14.6110  -27.5812 C   0  0  0  0  0  0  0  0  0  0  0  0
  -15.1557  -15.4829  -26.6107 C   0  0  0  0  0  0  0  0  0  0  0  0
  -14.7061  -13.2297  -27.3681 C   0  0  0  0  0  0  0  0  0  0  0  0
  -15.8175  -14.9591  -25.4923 C   0  0  0  0  0  0  0  0  0  0  0  0
  -14.9969  -16.8771  -26.7477 N   0  0  0  0  0  0  0  0  0  0  0  0
  -15.3270  -12.7227  -26.2281 C   0  0  0  0  0  0  0  0  0  0  0  0
  -15.9055  -13.5829  -25.2945 C   0  0  0  0  0  0  0  0  0  0  0  0
  -16.4244  -15.9205  -24.4984 C   0  0  0  0  0  0  0  0  0  0  0  0
  -16.0725  -17.2059  -24.7576 N   0  0  0  0  0  0  0  0  0  0  0  0
  -17.1821  -15.6197  -23.5774 O   0  0  0  0  0  0  0  0  0  0  0  0
  -15.4152  -17.7178  -25.8578 C   0  0  0  0  0  0  0  0  0  0  0  0
  -15.2565  -19.1843  -25.9941 C   0  0  0  0  0  0  0  0  0  0  0  0
  -14.6319  -19.7039  -27.1360 C   0  0  0  0  0  0  0  0  0  0  0  0
  -14.4496  -21.0707  -27.2868 C   0  0  0  0  0  0  0  0  0  0  0  0
  -14.8843  -21.9604  -26.3031 C   0  0  0  0  0  0  0  0  0  0  0  0
  -15.5283  -21.4500  -25.1676 C   0  0  0  0  0  0  0  0  0  0  0  0
  -15.7167  -20.0783  -25.0163 C   0  0  0  0  0  0  0  0  0  0  0  0
  -14.5831  -23.4642  -26.4242 C   0  0  0  0  0  0  0  0  0  0  0  0
  -14.2264  -23.8803  -27.7268 O   0  0  0  0  0  0  0  0  0  0  0  0
  -15.8049  -24.3384  -26.1355 C   0  0  0  0  0  0  0  0  0  0  0  0
  -13.4007  -23.8019  -25.5129 C   0  0  0  0  0  0  0  0  0  0  0  0
  -13.9366  -15.1262  -28.8376 C   0  0  0  0  0  0  0  0  0  0  0  0
  -14.2805  -12.5515  -28.0929 H   0  0  0  0  0  0  0  0  0  0  0  0
  -15.3606  -11.6554  -26.0661 H   0  0  0  0  0  0  0  0  0  0  0  0
  -16.4154  -13.1867  -24.4288 H   0  0  0  0  0  0  0  0  0  0  0  0
  -16.3238  -17.8725  -24.0558 H   0  0  0  0  0  0  0  0  0  0  0  0
  -14.2882  -19.0317  -27.9083 H   0  0  0  0  0  0  0  0  0  0  0  0
  -13.9662  -21.4505  -28.1748 H   0  0  0  0  0  0  0  0  0  0  0  0
  -15.8815  -22.1263  -24.4033 H   0  0  0  0  0  0  0  0  0  0  0  0
  -16.2210  -19.7002  -24.1393 H   0  0  0  0  0  0  0  0  0  0  0  0
  -14.0557  -24.8148  -27.7256 H   0  0  0  0  0  0  0  0  0  0  0  0
  -15.5300  -25.3987  -26.2370 H   0  0  0  0  0  0  0  0  0  0  0  0
  -16.1583  -24.1477  -25.1114 H   0  0  0  0  0  0  0  0  0  0  0  0
  -16.6053  -24.0972  -26.8504 H   0  0  0  0  0  0  0  0  0  0  0  0
  -13.1734  -24.8755  -25.5890 H   0  0  0  0  0  0  0  0  0  0  0  0
  -12.5212  -23.2182  -25.8222 H   0  0  0  0  0  0  0  0  0  0  0  0
  -13.6576  -23.5545  -24.4723 H   0  0  0  0  0  0  0  0  0  0  0  0
  -14.6754  -15.2382  -29.6448 H   0  0  0  0  0  0  0  0  0  0  0  0
  -13.1606  -14.4109  -29.1476 H   0  0  0  0  0  0  0  0  0  0  0  0
  -13.4732  -16.1013  -28.6269 H   0  0  0  0  0  0  0  0  0  0  0  0
  1  2  2  0  0  0  0
  1  3  1  0  0  0  0
  1 22  1  0  0  0  0
  2  4  1  0  0  0  0
  2  5  1  0  0  0  0
  3  6  2  0  0  0  0
  4  7  2  0  0  0  0
  4  8  1  0  0  0  0
  5 11  2  0  0  0  0
  6  7  1  0  0  0  0
  8  9  1  0  0  0  0
  8 10  2  0  0  0  0
  9 11  1  0  0  0  0
 11 12  1  0  0  0  0
 12 13  2  0  0  0  0
 12 17  1  0  0  0  0
 13 14  1  0  0  0  0
 14 15  2  0  0  0  0
 15 16  1  0  0  0  0
 15 18  1  0  0  0  0
 16 17  2  0  0  0  0
 18 19  1  0  0  0  0
 18 20  1  0  0  0  0
 18 21  1  0  0  0  0
  3 23  1  0  0  0  0
  6 24  1  0  0  0  0
  7 25  1  0  0  0  0
  9 26  1  0  0  0  0
 13 27  1  0  0  0  0
 14 28  1  0  0  0  0
 16 29  1  0  0  0  0
 17 30  1  0  0  0  0
 19 31  1  0  0  0  0
 20 32  1  0  0  0  0
 20 33  1  0  0  0  0
 20 34  1  0  0  0  0
 21 35  1  0  0  0  0
 21 36  1  0  0  0  0
 21 37  1  0  0  0  0
 22 38  1  0  0  0  0
 22 39  1  0  0  0  0
 22 40  1  0  0  0  0
M  END
> <Name>
5i

> <IC50[nM]>
1.4

$$$$
5i
  -OEChem-05192314333D
 Structure written by MMmdl.
 40 42  0     0  0  0  0  0  0999 V2000
  -14.6297  -14.6110  -27.5812 C   0  0  0  0  0  0  0  0  0  0  0  0
  -15.1557  -15.4829  -26.6107 C   0  0  0  0  0  0  0  0  0  0  0  0
  -14.7061  -13.2297  -27.3681 C   0  0  0  0  0  0  0  0  0  0  0  0
  -15.8175  -14.9591  -25.4923 C   0  0  0  0  0  0  0  0  0  0  0  0
  -14.9969  -16.8771  -26.7477 N   0  0  0  0  0  0  0  0  0  0  0  0
  -15.3270  -12.7227  -26.2281 C   0  0  0  0  0  0  0  0  0  0  0  0
  -15.9055  -13.5829  -25.2945 C   0  0  0  0  0  0  0  0  0  0  0  0
  -16.4244  -15.9205  -24.4984 C   0  0  0  0  0  0  0  0  0  0  0  0
  -16.0725  -17.2059  -24.7576 N   0  0  0  0  0  0  0  0  0  0  0  0
  -17.1821  -15.6197  -23.5774 O   0  0  0  0  0  0  0  0  0  0  0  0
  -15.4152  -17.7178  -25.8578 C   0  0  0  0  0  0  0  0  0  0  0  0
  -15.2565  -19.1843  -25.9941 C   0  0  0  0  0  0  0  0  0  0  0  0
  -14.6319  -19.7039  -27.1360 C   0  0  0  0  0  0  0  0  0  0  0  0
  -14.4496  -21.0707  -27.2868 C   0  0  0  0  0  0  0  0  0  0  0  0
  -14.8843  -21.9604  -26.3031 C   0  0  0  0  0  0  0  0  0  0  0  0
  -15.5283  -21.4500  -25.1676 C   0  0  0  0  0  0  0  0  0  0  0  0
  -15.7167  -20.0783  -25.0163 C   0  0  0  0  0  0  0  0  0  0  0  0
  -14.5831  -23.4642  -26.4242 C   0  0  0  0  0  0  0  0  0  0  0  0
  -14.2264  -23.8803  -27.7268 O   0  0  0  0  0  0  0  0  0  0  0  0
  -15.8049  -24.3384  -26.1355 C   0  0  0  0  0  0  0  0  0  0  0  0
  -13.4007  -23.8019  -25.5129 C   0  0  0  0  0  0  0  0  0  0  0  0
  -13.9366  -15.1262  -28.8376 C   0  0  0  0  0  0  0  0  0  0  0  0
  -14.2805  -12.5515  -28.0929 H   0  0  0  0  0  0  0  0  0  0  0  0
  -14.5427  -17.2303  -27.5656 H   0  0  0  0  0  0  0  0  0  0  0  0
  -15.3606  -11.6554  -26.0661 H   0  0  0  0  0  0  0  0  0  0  0  0
  -16.4154  -13.1867  -24.4288 H   0  0  0  0  0  0  0  0  0  0  0  0
  -14.2882  -19.0317  -27.9083 H   0  0  0  0  0  0  0  0  0  0  0  0
  -13.9662  -21.4505  -28.1748 H   0  0  0  0  0  0  0  0  0  0  0  0
  -15.8815  -22.1263  -24.4033 H   0  0  0  0  0  0  0  0  0  0  0  0
  -16.2210  -19.7002  -24.1393 H   0  0  0  0  0  0  0  0  0  0  0  0
  -14.0557  -24.8148  -27.7256 H   0  0  0  0  0  0  0  0  0  0  0  0
  -15.5300  -25.3987  -26.2370 H   0  0  0  0  0  0  0  0  0  0  0  0
  -16.1583  -24.1477  -25.1114 H   0  0  0  0  0  0  0  0  0  0  0  0
  -16.6053  -24.0972  -26.8504 H   0  0  0  0  0  0  0  0  0  0  0  0
  -13.1734  -24.8755  -25.5890 H   0  0  0  0  0  0  0  0  0  0  0  0
  -12.5212  -23.2182  -25.8222 H   0  0  0  0  0  0  0  0  0  0  0  0
  -13.6576  -23.5545  -24.4723 H   0  0  0  0  0  0  0  0  0  0  0  0
  -14.6754  -15.2382  -29.6448 H   0  0  0  0  0  0  0  0  0  0  0  0
  -13.1606  -14.4109  -29.1476 H   0  0  0  0  0  0  0  0  0  0  0  0
  -13.4732  -16.1013  -28.6269 H   0  0  0  0  0  0  0  0  0  0  0  0
  1  2  2  0  0  0  0
  1  3  1  0  0  0  0
  1 22  1  0  0  0  0
  2  4  1  0  0  0  0
  2  5  1  0  0  0  0
  3  6  2  0  0  0  0
  4  7  2  0  0  0  0
  4  8  1  0  0  0  0
  5 11  1  0  0  0  0
  6  7  1  0  0  0  0
  8  9  1  0  0  0  0
  8 10  2  0  0  0  0
  9 11  2  0  0  0  0
 11 12  1  0  0  0  0
 12 13  2  0  0  0  0
 12 17  1  0  0  0  0
 13 14  1  0  0  0  0
 14 15  2  0  0  0  0
 15 16  1  0  0  0  0
 15 18  1  0  0  0  0
 16 17  2  0  0  0  0
 18 19  1  0  0  0  0
 18 20  1  0  0  0  0
 18 21  1  0  0  0  0
  3 23  1  0  0  0  0
  5 24  1  0  0  0  0
  6 25  1  0  0  0  0
  7 26  1  0  0  0  0
 13 27  1  0  0  0  0
 14 28  1  0  0  0  0
 16 29  1  0  0  0  0
 17 30  1  0  0  0  0
 19 31  1  0  0  0  0
 20 32  1  0  0  0  0
 20 33  1  0  0  0  0
 20 34  1  0  0  0  0
 21 35  1  0  0  0  0
 21 36  1  0  0  0  0
 21 37  1  0  0  0  0
 22 38  1  0  0  0  0
 22 39  1  0  0  0  0
 22 40  1  0  0  0  0
M  END
> <Name>
5i

> <IC50[nM]>
1.4

$$$$
5i
  -OEChem-05192314333D
 Structure written by MMmdl.
 40 42  0     0  0  0  0  0  0999 V2000
  -14.6297  -14.6110  -27.5812 C   0  0  0  0  0  0  0  0  0  0  0  0
  -15.1557  -15.4829  -26.6107 C   0  0  0  0  0  0  0  0  0  0  0  0
  -14.7061  -13.2297  -27.3681 C   0  0  0  0  0  0  0  0  0  0  0  0
  -15.8175  -14.9591  -25.4923 C   0  0  0  0  0  0  0  0  0  0  0  0
  -14.9969  -16.8771  -26.7477 N   0  0  0  0  0  0  0  0  0  0  0  0
  -15.3270  -12.7227  -26.2281 C   0  0  0  0  0  0  0  0  0  0  0  0
  -15.9055  -13.5829  -25.2945 C   0  0  0  0  0  0  0  0  0  0  0  0
  -16.4244  -15.9205  -24.4984 C   0  0  0  0  0  0  0  0  0  0  0  0
  -16.0725  -17.2059  -24.7576 N   0  0  0  0  0  0  0  0  0  0  0  0
  -17.1821  -15.6197  -23.5774 O   0  0  0  0  0  0  0  0  0  0  0  0
  -15.4152  -17.7178  -25.8578 C   0  0  0  0  0  0  0  0  0  0  0  0
  -15.2565  -19.1843  -25.9941 C   0  0  0  0  0  0  0  0  0  0  0  0
  -14.6319  -19.7039  -27.1360 C   0  0  0  0  0  0  0  0  0  0  0  0
  -14.4496  -21.0707  -27.2868 C   0  0  0  0  0  0  0  0  0  0  0  0
  -14.8843  -21.9604  -26.3031 C   0  0  0  0  0  0  0  0  0  0  0  0
  -15.5283  -21.4500  -25.1676 C   0  0  0  0  0  0  0  0  0  0  0  0
  -15.7167  -20.0783  -25.0163 C   0  0  0  0  0  0  0  0  0  0  0  0
  -14.5831  -23.4642  -26.4242 C   0  0  0  0  0  0  0  0  0  0  0  0
  -14.2264  -23.8803  -27.7268 O   0  0  0  0  0  0  0  0  0  0  0  0
  -15.8049  -24.3384  -26.1355 C   0  0  0  0  0  0  0  0  0  0  0  0
  -13.4007  -23.8019  -25.5129 C   0  0  0  0  0  0  0  0  0  0  0  0
  -13.9366  -15.1262  -28.8376 C   0  0  0  0  0  0  0  0  0  0  0  0
  -14.2805  -12.5515  -28.0929 H   0  0  0  0  0  0  0  0  0  0  0  0
  -15.3606  -11.6554  -26.0661 H   0  0  0  0  0  0  0  0  0  0  0  0
  -16.4154  -13.1867  -24.4288 H   0  0  0  0  0  0  0  0  0  0  0  0
  -17.4515  -16.4067  -23.1185 H   0  0  0  0  0  0  0  0  0  0  0  0
  -14.2882  -19.0317  -27.9083 H   0  0  0  0  0  0  0  0  0  0  0  0
  -13.9662  -21.4505  -28.1748 H   0  0  0  0  0  0  0  0  0  0  0  0
  -15.8815  -22.1263  -24.4033 H   0  0  0  0  0  0  0  0  0  0  0  0
  -16.2210  -19.7002  -24.1393 H   0  0  0  0  0  0  0  0  0  0  0  0
  -14.0557  -24.8148  -27.7256 H   0  0  0  0  0  0  0  0  0  0  0  0
  -15.5300  -25.3987  -26.2370 H   0  0  0  0  0  0  0  0  0  0  0  0
  -16.1583  -24.1477  -25.1114 H   0  0  0  0  0  0  0  0  0  0  0  0
  -16.6053  -24.0972  -26.8504 H   0  0  0  0  0  0  0  0  0  0  0  0
  -13.1734  -24.8755  -25.5890 H   0  0  0  0  0  0  0  0  0  0  0  0
  -12.5212  -23.2182  -25.8222 H   0  0  0  0  0  0  0  0  0  0  0  0
  -13.6576  -23.5545  -24.4723 H   0  0  0  0  0  0  0  0  0  0  0  0
  -14.6754  -15.2382  -29.6448 H   0  0  0  0  0  0  0  0  0  0  0  0
  -13.1606  -14.4109  -29.1476 H   0  0  0  0  0  0  0  0  0  0  0  0
  -13.4732  -16.1013  -28.6269 H   0  0  0  0  0  0  0  0  0  0  0  0
  1  2  2  0  0  0  0
  1  3  1  0  0  0  0
  1 22  1  0  0  0  0
  2  4  1  0  0  0  0
  2  5  1  0  0  0  0
  3  6  2  0  0  0  0
  4  7  2  0  0  0  0
  4  8  1  0  0  0  0
  5 11  2  0  0  0  0
  6  7  1  0  0  0  0
  8  9  2  0  0  0  0
  8 10  1  0  0  0  0
  9 11  1  0  0  0  0
 11 12  1  0  0  0  0
 12 13  2  0  0  0  0
 12 17  1  0  0  0  0
 13 14  1  0  0  0  0
 14 15  2  0  0  0  0
 15 16  1  0  0  0  0
 15 18  1  0  0  0  0
 16 17  2  0  0  0  0
 18 19  1  0  0  0  0
 18 20  1  0  0  0  0
 18 21  1  0  0  0  0
  3 23  1  0  0  0  0
  6 24  1  0  0  0  0
  7 25  1  0  0  0  0
 10 26  1  0  0  0  0
 13 27  1  0  0  0  0
 14 28  1  0  0  0  0
 16 29  1  0  0  0  0
 17 30  1  0  0  0  0
 19 31  1  0  0  0  0
 20 32  1  0  0  0  0
 20 33  1  0  0  0  0
 20 34  1  0  0  0  0
 21 35  1  0  0  0  0
 21 36  1  0  0  0  0
 21 37  1  0  0  0  0
 22 38  1  0  0  0  0
 22 39  1  0  0  0  0
 22 40  1  0  0  0  0
M  END
> <Name>
5i

> <IC50[nM]>
1.4

$$$$
5i
  -OEChem-05192314333D
 Structure written by MMmdl.
 40 42  0     1  0  0  0  0  0999 V2000
  -14.6297  -14.6110  -27.5812 C   0  0  3  0  0  0  0  0  0  0  0  0
  -15.1557  -15.4829  -26.6107 C   0  0  0  0  0  0  0  0  0  0  0  0
  -14.7061  -13.2297  -27.3681 C   0  0  0  0  0  0  0  0  0  0  0  0
  -15.8175  -14.9591  -25.4923 C   0  0  0  0  0  0  0  0  0  0  0  0
  -14.9969  -16.8771  -26.7477 N   0  0  0  0  0  0  0  0  0  0  0  0
  -15.3270  -12.7227  -26.2281 C   0  0  0  0  0  0  0  0  0  0  0  0
  -15.9055  -13.5829  -25.2945 C   0  0  0  0  0  0  0  0  0  0  0  0
  -16.4244  -15.9205  -24.4984 C   0  0  0  0  0  0  0  0  0  0  0  0
  -16.0725  -17.2059  -24.7576 N   0  0  0  0  0  0  0  0  0  0  0  0
  -17.1821  -15.6197  -23.5774 O   0  0  0  0  0  0  0  0  0  0  0  0
  -15.4152  -17.7178  -25.8578 C   0  0  0  0  0  0  0  0  0  0  0  0
  -15.2565  -19.1843  -25.9941 C   0  0  0  0  0  0  0  0  0  0  0  0
  -14.6319  -19.7039  -27.1360 C   0  0  0  0  0  0  0  0  0  0  0  0
  -14.4496  -21.0707  -27.2868 C   0  0  0  0  0  0  0  0  0  0  0  0
  -14.8843  -21.9604  -26.3031 C   0  0  0  0  0  0  0  0  0  0  0  0
  -15.5283  -21.4500  -25.1676 C   0  0  0  0  0  0  0  0  0  0  0  0
  -15.7167  -20.0783  -25.0163 C   0  0  0  0  0  0  0  0  0  0  0  0
  -14.5831  -23.4642  -26.4242 C   0  0  0  0  0  0  0  0  0  0  0  0
  -14.2264  -23.8803  -27.7268 O   0  0  0  0  0  0  0  0  0  0  0  0
  -15.8049  -24.3384  -26.1355 C   0  0  0  0  0  0  0  0  0  0  0  0
  -13.4007  -23.8019  -25.5129 C   0  0  0  0  0  0  0  0  0  0  0  0
  -13.9366  -15.1262  -28.8376 C   0  0  0  0  0  0  0  0  0  0  0  0
  -15.5955  -14.5952  -28.1074 H   0  0  0  0  0  0  0  0  0  0  0  0
  -14.2805  -12.5515  -28.0929 H   0  0  0  0  0  0  0  0  0  0  0  0
  -15.3606  -11.6554  -26.0661 H   0  0  0  0  0  0  0  0  0  0  0  0
  -16.4154  -13.1867  -24.4288 H   0  0  0  0  0  0  0  0  0  0  0  0
  -14.2882  -19.0317  -27.9083 H   0  0  0  0  0  0  0  0  0  0  0  0
  -13.9662  -21.4505  -28.1748 H   0  0  0  0  0  0  0  0  0  0  0  0
  -15.8815  -22.1263  -24.4033 H   0  0  0  0  0  0  0  0  0  0  0  0
  -16.2210  -19.7002  -24.1393 H   0  0  0  0  0  0  0  0  0  0  0  0
  -14.0557  -24.8148  -27.7256 H   0  0  0  0  0  0  0  0  0  0  0  0
  -15.5300  -25.3987  -26.2370 H   0  0  0  0  0  0  0  0  0  0  0  0
  -16.1583  -24.1477  -25.1114 H   0  0  0  0  0  0  0  0  0  0  0  0
  -16.6053  -24.0972  -26.8504 H   0  0  0  0  0  0  0  0  0  0  0  0
  -13.1734  -24.8755  -25.5890 H   0  0  0  0  0  0  0  0  0  0  0  0
  -12.5212  -23.2182  -25.8222 H   0  0  0  0  0  0  0  0  0  0  0  0
  -13.6576  -23.5545  -24.4723 H   0  0  0  0  0  0  0  0  0  0  0  0
  -13.6067  -14.2744  -29.4504 H   0  0  0  0  0  0  0  0  0  0  0  0
  -13.0641  -15.7324  -28.5525 H   0  0  0  0  0  0  0  0  0  0  0  0
  -14.6389  -15.7440  -29.4165 H   0  0  0  0  0  0  0  0  0  0  0  0
  1  2  1  0  0  0  0
  1  3  1  0  0  0  0
  1 22  1  0  0  0  0
  2  4  1  0  0  0  0
  2  5  2  0  0  0  0
  3  6  2  0  0  0  0
  4  7  2  0  0  0  0
  4  8  1  0  0  0  0
  5 11  1  0  0  0  0
  6  7  1  0  0  0  0
  8  9  1  0  0  0  0
  8 10  2  0  0  0  0
  9 11  2  0  0  0  0
 11 12  1  0  0  0  0
 12 13  2  0  0  0  0
 12 17  1  0  0  0  0
 13 14  1  0  0  0  0
 14 15  2  0  0  0  0
 15 16  1  0  0  0  0
 15 18  1  0  0  0  0
 16 17  2  0  0  0  0
 18 19  1  0  0  0  0
 18 20  1  0  0  0  0
 18 21  1  0  0  0  0
  1 23  1  0  0  0  0
  3 24  1  0  0  0  0
  6 25  1  0  0  0  0
  7 26  1  0  0  0  0
 13 27  1  0  0  0  0
 14 28  1  0  0  0  0
 16 29  1  0  0  0  0
 17 30  1  0  0  0  0
 19 31  1  0  0  0  0
 20 32  1  0  0  0  0
 20 33  1  0  0  0  0
 20 34  1  0  0  0  0
 21 35  1  0  0  0  0
 21 36  1  0  0  0  0
 21 37  1  0  0  0  0
 22 38  1  0  0  0  0
 22 39  1  0  0  0  0
 22 40  1  0  0  0  0
M  END
> <Name>
5i

> <IC50[nM]>
1.4

$$$$
5i
  -OEChem-05192314333D
 Structure written by MMmdl.
 40 42  0     1  0  0  0  0  0999 V2000
  -14.6297  -14.6110  -27.5812 C   0  0  0  0  0  0  0  0  0  0  0  0
  -15.1557  -15.4829  -26.6107 C   0  0  0  0  0  0  0  0  0  0  0  0
  -14.7061  -13.2297  -27.3681 C   0  0  0  0  0  0  0  0  0  0  0  0
  -15.8175  -14.9591  -25.4923 C   0  0  3  0  0  0  0  0  0  0  0  0
  -14.9969  -16.8771  -26.7477 N   0  0  0  0  0  0  0  0  0  0  0  0
  -15.3270  -12.7227  -26.2281 C   0  0  0  0  0  0  0  0  0  0  0  0
  -15.9055  -13.5829  -25.2945 C   0  0  0  0  0  0  0  0  0  0  0  0
  -16.4244  -15.9205  -24.4984 C   0  0  0  0  0  0  0  0  0  0  0  0
  -16.0725  -17.2059  -24.7576 N   0  0  0  0  0  0  0  0  0  0  0  0
  -17.1821  -15.6197  -23.5774 O   0  0  0  0  0  0  0  0  0  0  0  0
  -15.4152  -17.7178  -25.8578 C   0  0  0  0  0  0  0  0  0  0  0  0
  -15.2565  -19.1843  -25.9941 C   0  0  0  0  0  0  0  0  0  0  0  0
  -14.6319  -19.7039  -27.1360 C   0  0  0  0  0  0  0  0  0  0  0  0
  -14.4496  -21.0707  -27.2868 C   0  0  0  0  0  0  0  0  0  0  0  0
  -14.8843  -21.9604  -26.3031 C   0  0  0  0  0  0  0  0  0  0  0  0
  -15.5283  -21.4500  -25.1676 C   0  0  0  0  0  0  0  0  0  0  0  0
  -15.7167  -20.0783  -25.0163 C   0  0  0  0  0  0  0  0  0  0  0  0
  -14.5831  -23.4642  -26.4242 C   0  0  0  0  0  0  0  0  0  0  0  0
  -14.2264  -23.8803  -27.7268 O   0  0  0  0  0  0  0  0  0  0  0  0
  -15.8049  -24.3384  -26.1355 C   0  0  0  0  0  0  0  0  0  0  0  0
  -13.4007  -23.8019  -25.5129 C   0  0  0  0  0  0  0  0  0  0  0  0
  -13.9366  -15.1262  -28.8376 C   0  0  0  0  0  0  0  0  0  0  0  0
  -14.2805  -12.5515  -28.0929 H   0  0  0  0  0  0  0  0  0  0  0  0
  -16.7620  -14.9414  -26.0559 H   0  0  0  0  0  0  0  0  0  0  0  0
  -15.3606  -11.6554  -26.0661 H   0  0  0  0  0  0  0  0  0  0  0  0
  -16.4154  -13.1867  -24.4288 H   0  0  0  0  0  0  0  0  0  0  0  0
  -14.2882  -19.0317  -27.9083 H   0  0  0  0  0  0  0  0  0  0  0  0
  -13.9662  -21.4505  -28.1748 H   0  0  0  0  0  0  0  0  0  0  0  0
  -15.8815  -22.1263  -24.4033 H   0  0  0  0  0  0  0  0  0  0  0  0
  -16.2210  -19.7002  -24.1393 H   0  0  0  0  0  0  0  0  0  0  0  0
  -14.0557  -24.8148  -27.7256 H   0  0  0  0  0  0  0  0  0  0  0  0
  -15.5300  -25.3987  -26.2370 H   0  0  0  0  0  0  0  0  0  0  0  0
  -16.1583  -24.1477  -25.1114 H   0  0  0  0  0  0  0  0  0  0  0  0
  -16.6053  -24.0972  -26.8504 H   0  0  0  0  0  0  0  0  0  0  0  0
  -13.1734  -24.8755  -25.5890 H   0  0  0  0  0  0  0  0  0  0  0  0
  -12.5212  -23.2182  -25.8222 H   0  0  0  0  0  0  0  0  0  0  0  0
  -13.6576  -23.5545  -24.4723 H   0  0  0  0  0  0  0  0  0  0  0  0
  -13.6067  -14.2744  -29.4504 H   0  0  0  0  0  0  0  0  0  0  0  0
  -13.0641  -15.7324  -28.5525 H   0  0  0  0  0  0  0  0  0  0  0  0
  -14.6389  -15.7440  -29.4165 H   0  0  0  0  0  0  0  0  0  0  0  0
  1  2  1  0  0  0  0
  1  3  2  0  0  0  0
  1 22  1  0  0  0  0
  2  4  1  0  0  0  0
  2  5  2  0  0  0  0
  3  6  1  0  0  0  0
  4  7  1  0  0  0  0
  4  8  1  0  0  0  0
  5 11  1  0  0  0  0
  6  7  2  0  0  0  0
  8  9  1  0  0  0  0
  8 10  2  0  0  0  0
  9 11  2  0  0  0  0
 11 12  1  0  0  0  0
 12 13  2  0  0  0  0
 12 17  1  0  0  0  0
 13 14  1  0  0  0  0
 14 15  2  0  0  0  0
 15 16  1  0  0  0  0
 15 18  1  0  0  0  0
 16 17  2  0  0  0  0
 18 19  1  0  0  0  0
 18 20  1  0  0  0  0
 18 21  1  0  0  0  0
  3 23  1  0  0  0  0
  4 24  1  0  0  0  0
  6 25  1  0  0  0  0
  7 26  1  0  0  0  0
 13 27  1  0  0  0  0
 14 28  1  0  0  0  0
 16 29  1  0  0  0  0
 17 30  1  0  0  0  0
 19 31  1  0  0  0  0
 20 32  1  0  0  0  0
 20 33  1  0  0  0  0
 20 34  1  0  0  0  0
 21 35  1  0  0  0  0
 21 36  1  0  0  0  0
 21 37  1  0  0  0  0
 22 38  1  0  0  0  0
 22 39  1  0  0  0  0
 22 40  1  0  0  0  0
M  END
> <Name>
5i

> <IC50[nM]>
1.4

$$$$
5i
  -OEChem-05192314333D
 Structure written by MMmdl.
 40 42  0     0  0  0  0  0  0999 V2000
  -14.6297  -14.6110  -27.5812 C   0  0  0  0  0  0  0  0  0  0  0  0
  -15.1557  -15.4829  -26.6107 C   0  0  0  0  0  0  0  0  0  0  0  0
  -14.7061  -13.2297  -27.3681 C   0  0  0  0  0  0  0  0  0  0  0  0
  -15.8175  -14.9591  -25.4923 C   0  0  0  0  0  0  0  0  0  0  0  0
  -14.9969  -16.8771  -26.7477 N   0  0  0  0  0  0  0  0  0  0  0  0
  -15.3270  -12.7227  -26.2281 C   0  0  0  0  0  0  0  0  0  0  0  0
  -15.9055  -13.5829  -25.2945 C   0  0  0  0  0  0  0  0  0  0  0  0
  -16.4244  -15.9205  -24.4984 C   0  0  0  0  0  0  0  0  0  0  0  0
  -16.0725  -17.2059  -24.7576 N   0  0  0  0  0  0  0  0  0  0  0  0
  -17.1821  -15.6197  -23.5774 O   0  0  0  0  0  0  0  0  0  0  0  0
  -15.4152  -17.7178  -25.8578 C   0  0  0  0  0  0  0  0  0  0  0  0
  -15.2565  -19.1843  -25.9941 C   0  0  0  0  0  0  0  0  0  0  0  0
  -14.6319  -19.7039  -27.1360 C   0  0  0  0  0  0  0  0  0  0  0  0
  -14.4496  -21.0707  -27.2868 C   0  0  0  0  0  0  0  0  0  0  0  0
  -14.8843  -21.9604  -26.3031 C   0  0  0  0  0  0  0  0  0  0  0  0
  -15.5283  -21.4500  -25.1676 C   0  0  0  0  0  0  0  0  0  0  0  0
  -15.7167  -20.0783  -25.0163 C   0  0  0  0  0  0  0  0  0  0  0  0
  -14.5831  -23.4642  -26.4242 C   0  0  0  0  0  0  0  0  0  0  0  0
  -14.2264  -23.8803  -27.7268 O   0  0  0  0  0  0  0  0  0  0  0  0
  -15.8049  -24.3384  -26.1355 C   0  0  0  0  0  0  0  0  0  0  0  0
  -13.4007  -23.8019  -25.5129 C   0  0  0  0  0  0  0  0  0  0  0  0
  -13.9366  -15.1262  -28.8376 C   0  0  0  0  0  0  0  0  0  0  0  0
  -14.2805  -12.5515  -28.0929 H   0  0  0  0  0  0  0  0  0  0  0  0
  -14.5670  -12.1379  -25.6891 H   0  0  0  0  0  0  0  0  0  0  0  0
  -16.1265  -12.0523  -26.5766 H   0  0  0  0  0  0  0  0  0  0  0  0
  -16.4154  -13.1867  -24.4288 H   0  0  0  0  0  0  0  0  0  0  0  0
  -14.2882  -19.0317  -27.9083 H   0  0  0  0  0  0  0  0  0  0  0  0
  -13.9662  -21.4505  -28.1748 H   0  0  0  0  0  0  0  0  0  0  0  0
  -15.8815  -22.1263  -24.4033 H   0  0  0  0  0  0  0  0  0  0  0  0
  -16.2210  -19.7002  -24.1393 H   0  0  0  0  0  0  0  0  0  0  0  0
  -14.0557  -24.8148  -27.7256 H   0  0  0  0  0  0  0  0  0  0  0  0
  -15.5300  -25.3987  -26.2370 H   0  0  0  0  0  0  0  0  0  0  0  0
  -16.1583  -24.1477  -25.1114 H   0  0  0  0  0  0  0  0  0  0  0  0
  -16.6053  -24.0972  -26.8504 H   0  0  0  0  0  0  0  0  0  0  0  0
  -13.1734  -24.8755  -25.5890 H   0  0  0  0  0  0  0  0  0  0  0  0
  -12.5212  -23.2182  -25.8222 H   0  0  0  0  0  0  0  0  0  0  0  0
  -13.6576  -23.5545  -24.4723 H   0  0  0  0  0  0  0  0  0  0  0  0
  -13.6067  -14.2744  -29.4504 H   0  0  0  0  0  0  0  0  0  0  0  0
  -13.0641  -15.7324  -28.5525 H   0  0  0  0  0  0  0  0  0  0  0  0
  -14.6389  -15.7440  -29.4165 H   0  0  0  0  0  0  0  0  0  0  0  0
  1  2  1  0  0  0  0
  1  3  2  0  0  0  0
  1 22  1  0  0  0  0
  2  4  1  0  0  0  0
  2  5  2  0  0  0  0
  3  6  1  0  0  0  0
  4  7  2  0  0  0  0
  4  8  1  0  0  0  0
  5 11  1  0  0  0  0
  6  7  1  0  0  0  0
  8  9  1  0  0  0  0
  8 10  2  0  0  0  0
  9 11  2  0  0  0  0
 11 12  1  0  0  0  0
 12 13  2  0  0  0  0
 12 17  1  0  0  0  0
 13 14  1  0  0  0  0
 14 15  2  0  0  0  0
 15 16  1  0  0  0  0
 15 18  1  0  0  0  0
 16 17  2  0  0  0  0
 18 19  1  0  0  0  0
 18 20  1  0  0  0  0
 18 21  1  0  0  0  0
  3 23  1  0  0  0  0
  6 24  1  0  0  0  0
  6 25  1  0  0  0  0
  7 26  1  0  0  0  0
 13 27  1  0  0  0  0
 14 28  1  0  0  0  0
 16 29  1  0  0  0  0
 17 30  1  0  0  0  0
 19 31  1  0  0  0  0
 20 32  1  0  0  0  0
 20 33  1  0  0  0  0
 20 34  1  0  0  0  0
 21 35  1  0  0  0  0
 21 36  1  0  0  0  0
 21 37  1  0  0  0  0
 22 38  1  0  0  0  0
 22 39  1  0  0  0  0
 22 40  1  0  0  0  0
M  END
> <Name>
5i

> <IC50[nM]>
1.4

$$$$
