8b
  -OEChem-05192314333D
 Structure written by MMmdl.
 47 50  0     0  0  0  0  0  0999 V2000
  -14.4976  -14.8078  -27.6041 C   0  0  0  0  0  0  0  0  0  0  0  0
  -15.0860  -15.6146  -26.6121 C   0  0  0  0  0  0  0  0  0  0  0  0
  -14.5776  -13.4189  -27.4910 C   0  0  0  0  0  0  0  0  0  0  0  0
  -15.7974  -15.0175  -25.5617 C   0  0  0  0  0  0  0  0  0  0  0  0
  -14.9497  -17.0161  -26.6693 N   0  0  0  0  0  0  0  0  0  0  0  0
  -15.2599  -12.8300  -26.4299 C   0  0  0  0  0  0  0  0  0  0  0  0
  -15.8868  -13.6238  -25.4651 C   0  0  0  0  0  0  0  0  0  0  0  0
  -16.4709  -15.9214  -24.5493 C   0  0  0  0  0  0  0  0  0  0  0  0
  -16.1516  -17.2326  -24.7414 N   0  0  0  0  0  0  0  0  0  0  0  0
  -17.2464  -15.5613  -23.6634 O   0  0  0  0  0  0  0  0  0  0  0  0
  -15.4317  -17.8110  -25.7710 C   0  0  0  0  0  0  0  0  0  0  0  0
  -15.2745  -19.2883  -25.8445 C   0  0  0  0  0  0  0  0  0  0  0  0
  -14.7650  -19.8714  -27.0158 C   0  0  0  0  0  0  0  0  0  0  0  0
  -14.6263  -21.2503  -27.1285 C   0  0  0  0  0  0  0  0  0  0  0  0
  -14.9818  -22.0879  -26.0683 C   0  0  0  0  0  0  0  0  0  0  0  0
  -15.4738  -21.5135  -24.8915 C   0  0  0  0  0  0  0  0  0  0  0  0
  -15.6247  -20.1316  -24.7809 C   0  0  0  0  0  0  0  0  0  0  0  0
  -15.3111  -11.4823  -26.3542 F   0  0  0  0  0  0  0  0  0  0  0  0
  -14.9414  -23.4608  -26.2022 N   0  0  0  0  0  0  0  0  0  0  0  0
  -16.1549  -23.9516  -26.9975 C   0  0  0  0  0  0  0  0  0  0  0  0
  -16.1562  -25.4776  -27.1371 C   0  0  0  0  0  0  0  0  0  0  0  0
  -14.9559  -25.8533  -28.0095 N   0  0  0  0  0  0  0  0  0  0  0  0
  -13.6649  -25.5179  -27.2581 C   0  0  0  0  0  0  0  0  0  0  0  0
  -13.6349  -24.0190  -26.8149 C   0  0  0  0  0  0  0  0  0  0  0  0
  -15.0017  -27.3550  -28.3866 C   0  0  0  0  0  0  0  0  0  0  0  0
  -13.7753  -15.4592  -28.7980 C   0  0  0  0  0  0  0  0  0  0  0  0
  -14.1051  -12.7943  -28.2347 H   0  0  0  0  0  0  0  0  0  0  0  0
  -16.4342  -13.1668  -24.6539 H   0  0  0  0  0  0  0  0  0  0  0  0
  -16.4840  -17.8639  -24.0407 H   0  0  0  0  0  0  0  0  0  0  0  0
  -14.4763  -19.2389  -27.8422 H   0  0  0  0  0  0  0  0  0  0  0  0
  -14.2408  -21.6771  -28.0426 H   0  0  0  0  0  0  0  0  0  0  0  0
  -15.7399  -22.1477  -24.0588 H   0  0  0  0  0  0  0  0  0  0  0  0
  -16.0149  -19.7073  -23.8676 H   0  0  0  0  0  0  0  0  0  0  0  0
  -17.0727  -23.6396  -26.4776 H   0  0  0  0  0  0  0  0  0  0  0  0
  -16.1306  -23.5011  -28.0007 H   0  0  0  0  0  0  0  0  0  0  0  0
  -16.0637  -25.9468  -26.1465 H   0  0  0  0  0  0  0  0  0  0  0  0
  -17.0889  -25.8115  -27.6153 H   0  0  0  0  0  0  0  0  0  0  0  0
  -13.5945  -26.1565  -26.3652 H   0  0  0  0  0  0  0  0  0  0  0  0
  -12.8062  -25.7133  -27.9173 H   0  0  0  0  0  0  0  0  0  0  0  0
  -13.3935  -23.4122  -27.7001 H   0  0  0  0  0  0  0  0  0  0  0  0
  -12.8380  -23.9068  -26.0650 H   0  0  0  0  0  0  0  0  0  0  0  0
  -14.1317  -27.6031  -29.0124 H   0  0  0  0  0  0  0  0  0  0  0  0
  -14.9800  -27.9638  -27.4707 H   0  0  0  0  0  0  0  0  0  0  0  0
  -15.9263  -27.5648  -28.9444 H   0  0  0  0  0  0  0  0  0  0  0  0
  -14.4921  -15.6223  -29.6163 H   0  0  0  0  0  0  0  0  0  0  0  0
  -12.9684  -14.7966  -29.1441 H   0  0  0  0  0  0  0  0  0  0  0  0
  -13.3490  -16.4242  -28.4864 H   0  0  0  0  0  0  0  0  0  0  0  0
  1  2  2  0  0  0  0
  1  3  1  0  0  0  0
  1 26  1  0  0  0  0
  2  4  1  0  0  0  0
  2  5  1  0  0  0  0
  3  6  2  0  0  0  0
  4  7  2  0  0  0  0
  4  8  1  0  0  0  0
  5 11  2  0  0  0  0
  6  7  1  0  0  0  0
  6 18  1  0  0  0  0
  8  9  1  0  0  0  0
  8 10  2  0  0  0  0
  9 11  1  0  0  0  0
 11 12  1  0  0  0  0
 12 13  2  0  0  0  0
 12 17  1  0  0  0  0
 13 14  1  0  0  0  0
 14 15  2  0  0  0  0
 15 16  1  0  0  0  0
 15 19  1  0  0  0  0
 16 17  2  0  0  0  0
 19 20  1  0  0  0  0
 19 24  1  0  0  0  0
 20 21  1  0  0  0  0
 21 22  1  0  0  0  0
 22 23  1  0  0  0  0
 22 25  1  0  0  0  0
 23 24  1  0  0  0  0
  3 27  1  0  0  0  0
  7 28  1  0  0  0  0
  9 29  1  0  0  0  0
 13 30  1  0  0  0  0
 14 31  1  0  0  0  0
 16 32  1  0  0  0  0
 17 33  1  0  0  0  0
 20 34  1  0  0  0  0
 20 35  1  0  0  0  0
 21 36  1  0  0  0  0
 21 37  1  0  0  0  0
 23 38  1  0  0  0  0
 23 39  1  0  0  0  0
 24 40  1  0  0  0  0
 24 41  1  0  0  0  0
 25 42  1  0  0  0  0
 25 43  1  0  0  0  0
 25 44  1  0  0  0  0
 26 45  1  0  0  0  0
 26 46  1  0  0  0  0
 26 47  1  0  0  0  0
M  END
> <Name>
8b

> <IC50[nM]>
1.8

$$$$
8b
  -OEChem-05192314333D
 Structure written by MMmdl.
 47 50  0     0  0  0  0  0  0999 V2000
  -14.4976  -14.8078  -27.6041 C   0  0  0  0  0  0  0  0  0  0  0  0
  -15.0860  -15.6146  -26.6121 C   0  0  0  0  0  0  0  0  0  0  0  0
  -14.5776  -13.4189  -27.4910 C   0  0  0  0  0  0  0  0  0  0  0  0
  -15.7974  -15.0175  -25.5617 C   0  0  0  0  0  0  0  0  0  0  0  0
  -14.9497  -17.0161  -26.6693 N   0  0  0  0  0  0  0  0  0  0  0  0
  -15.2599  -12.8300  -26.4299 C   0  0  0  0  0  0  0  0  0  0  0  0
  -15.8868  -13.6238  -25.4651 C   0  0  0  0  0  0  0  0  0  0  0  0
  -16.4709  -15.9214  -24.5493 C   0  0  0  0  0  0  0  0  0  0  0  0
  -16.1516  -17.2326  -24.7414 N   0  0  0  0  0  0  0  0  0  0  0  0
  -17.2464  -15.5613  -23.6634 O   0  0  0  0  0  0  0  0  0  0  0  0
  -15.4317  -17.8110  -25.7710 C   0  0  0  0  0  0  0  0  0  0  0  0
  -15.2745  -19.2883  -25.8445 C   0  0  0  0  0  0  0  0  0  0  0  0
  -14.7650  -19.8714  -27.0158 C   0  0  0  0  0  0  0  0  0  0  0  0
  -14.6263  -21.2503  -27.1285 C   0  0  0  0  0  0  0  0  0  0  0  0
  -14.9818  -22.0879  -26.0683 C   0  0  0  0  0  0  0  0  0  0  0  0
  -15.4738  -21.5135  -24.8915 C   0  0  0  0  0  0  0  0  0  0  0  0
  -15.6247  -20.1316  -24.7809 C   0  0  0  0  0  0  0  0  0  0  0  0
  -15.3111  -11.4823  -26.3542 F   0  0  0  0  0  0  0  0  0  0  0  0
  -14.9414  -23.4608  -26.2022 N   0  0  0  0  0  0  0  0  0  0  0  0
  -16.1549  -23.9516  -26.9975 C   0  0  0  0  0  0  0  0  0  0  0  0
  -16.1562  -25.4776  -27.1371 C   0  0  0  0  0  0  0  0  0  0  0  0
  -14.9559  -25.8533  -28.0095 N   0  0  0  0  0  0  0  0  0  0  0  0
  -13.6649  -25.5179  -27.2581 C   0  0  0  0  0  0  0  0  0  0  0  0
  -13.6349  -24.0190  -26.8149 C   0  0  0  0  0  0  0  0  0  0  0  0
  -15.0017  -27.3550  -28.3866 C   0  0  0  0  0  0  0  0  0  0  0  0
  -13.7753  -15.4592  -28.7980 C   0  0  0  0  0  0  0  0  0  0  0  0
  -14.1051  -12.7943  -28.2347 H   0  0  0  0  0  0  0  0  0  0  0  0
  -14.4562  -17.4150  -27.4422 H   0  0  0  0  0  0  0  0  0  0  0  0
  -16.4342  -13.1668  -24.6539 H   0  0  0  0  0  0  0  0  0  0  0  0
  -14.4763  -19.2389  -27.8422 H   0  0  0  0  0  0  0  0  0  0  0  0
  -14.2408  -21.6771  -28.0426 H   0  0  0  0  0  0  0  0  0  0  0  0
  -15.7399  -22.1477  -24.0588 H   0  0  0  0  0  0  0  0  0  0  0  0
  -16.0149  -19.7073  -23.8676 H   0  0  0  0  0  0  0  0  0  0  0  0
  -17.0727  -23.6396  -26.4776 H   0  0  0  0  0  0  0  0  0  0  0  0
  -16.1306  -23.5011  -28.0007 H   0  0  0  0  0  0  0  0  0  0  0  0
  -16.0637  -25.9468  -26.1465 H   0  0  0  0  0  0  0  0  0  0  0  0
  -17.0889  -25.8115  -27.6153 H   0  0  0  0  0  0  0  0  0  0  0  0
  -13.5945  -26.1565  -26.3652 H   0  0  0  0  0  0  0  0  0  0  0  0
  -12.8062  -25.7133  -27.9173 H   0  0  0  0  0  0  0  0  0  0  0  0
  -13.3935  -23.4122  -27.7001 H   0  0  0  0  0  0  0  0  0  0  0  0
  -12.8380  -23.9068  -26.0650 H   0  0  0  0  0  0  0  0  0  0  0  0
  -14.1317  -27.6031  -29.0124 H   0  0  0  0  0  0  0  0  0  0  0  0
  -14.9800  -27.9638  -27.4707 H   0  0  0  0  0  0  0  0  0  0  0  0
  -15.9263  -27.5648  -28.9444 H   0  0  0  0  0  0  0  0  0  0  0  0
  -14.4921  -15.6223  -29.6163 H   0  0  0  0  0  0  0  0  0  0  0  0
  -12.9684  -14.7966  -29.1441 H   0  0  0  0  0  0  0  0  0  0  0  0
  -13.3490  -16.4242  -28.4864 H   0  0  0  0  0  0  0  0  0  0  0  0
  1  2  2  0  0  0  0
  1  3  1  0  0  0  0
  1 26  1  0  0  0  0
  2  4  1  0  0  0  0
  2  5  1  0  0  0  0
  3  6  2  0  0  0  0
  4  7  2  0  0  0  0
  4  8  1  0  0  0  0
  5 11  1  0  0  0  0
  6  7  1  0  0  0  0
  6 18  1  0  0  0  0
  8  9  1  0  0  0  0
  8 10  2  0  0  0  0
  9 11  2  0  0  0  0
 11 12  1  0  0  0  0
 12 13  2  0  0  0  0
 12 17  1  0  0  0  0
 13 14  1  0  0  0  0
 14 15  2  0  0  0  0
 15 16  1  0  0  0  0
 15 19  1  0  0  0  0
 16 17  2  0  0  0  0
 19 20  1  0  0  0  0
 19 24  1  0  0  0  0
 20 21  1  0  0  0  0
 21 22  1  0  0  0  0
 22 23  1  0  0  0  0
 22 25  1  0  0  0  0
 23 24  1  0  0  0  0
  3 27  1  0  0  0  0
  5 28  1  0  0  0  0
  7 29  1  0  0  0  0
 13 30  1  0  0  0  0
 14 31  1  0  0  0  0
 16 32  1  0  0  0  0
 17 33  1  0  0  0  0
 20 34  1  0  0  0  0
 20 35  1  0  0  0  0
 21 36  1  0  0  0  0
 21 37  1  0  0  0  0
 23 38  1  0  0  0  0
 23 39  1  0  0  0  0
 24 40  1  0  0  0  0
 24 41  1  0  0  0  0
 25 42  1  0  0  0  0
 25 43  1  0  0  0  0
 25 44  1  0  0  0  0
 26 45  1  0  0  0  0
 26 46  1  0  0  0  0
 26 47  1  0  0  0  0
M  END
> <Name>
8b

> <IC50[nM]>
1.8

$$$$
8b
  -OEChem-05192314333D
 Structure written by MMmdl.
 47 50  0     0  0  0  0  0  0999 V2000
  -14.4976  -14.8078  -27.6041 C   0  0  0  0  0  0  0  0  0  0  0  0
  -15.0860  -15.6146  -26.6121 C   0  0  0  0  0  0  0  0  0  0  0  0
  -14.5776  -13.4189  -27.4910 C   0  0  0  0  0  0  0  0  0  0  0  0
  -15.7974  -15.0175  -25.5617 C   0  0  0  0  0  0  0  0  0  0  0  0
  -14.9497  -17.0161  -26.6693 N   0  0  0  0  0  0  0  0  0  0  0  0
  -15.2599  -12.8300  -26.4299 C   0  0  0  0  0  0  0  0  0  0  0  0
  -15.8868  -13.6238  -25.4651 C   0  0  0  0  0  0  0  0  0  0  0  0
  -16.4709  -15.9214  -24.5493 C   0  0  0  0  0  0  0  0  0  0  0  0
  -16.1516  -17.2326  -24.7414 N   0  0  0  0  0  0  0  0  0  0  0  0
  -17.2464  -15.5613  -23.6634 O   0  0  0  0  0  0  0  0  0  0  0  0
  -15.4317  -17.8110  -25.7710 C   0  0  0  0  0  0  0  0  0  0  0  0
  -15.2745  -19.2883  -25.8445 C   0  0  0  0  0  0  0  0  0  0  0  0
  -14.7650  -19.8714  -27.0158 C   0  0  0  0  0  0  0  0  0  0  0  0
  -14.6263  -21.2503  -27.1285 C   0  0  0  0  0  0  0  0  0  0  0  0
  -14.9818  -22.0879  -26.0683 C   0  0  0  0  0  0  0  0  0  0  0  0
  -15.4738  -21.5135  -24.8915 C   0  0  0  0  0  0  0  0  0  0  0  0
  -15.6247  -20.1316  -24.7809 C   0  0  0  0  0  0  0  0  0  0  0  0
  -15.3111  -11.4823  -26.3542 F   0  0  0  0  0  0  0  0  0  0  0  0
  -14.9414  -23.4608  -26.2022 N   0  0  0  0  0  0  0  0  0  0  0  0
  -16.1549  -23.9516  -26.9975 C   0  0  0  0  0  0  0  0  0  0  0  0
  -16.1562  -25.4776  -27.1371 C   0  0  0  0  0  0  0  0  0  0  0  0
  -14.9559  -25.8533  -28.0095 N   0  0  0  0  0  0  0  0  0  0  0  0
  -13.6649  -25.5179  -27.2581 C   0  0  0  0  0  0  0  0  0  0  0  0
  -13.6349  -24.0190  -26.8149 C   0  0  0  0  0  0  0  0  0  0  0  0
  -15.0017  -27.3550  -28.3866 C   0  0  0  0  0  0  0  0  0  0  0  0
  -13.7753  -15.4592  -28.7980 C   0  0  0  0  0  0  0  0  0  0  0  0
  -14.1051  -12.7943  -28.2347 H   0  0  0  0  0  0  0  0  0  0  0  0
  -16.4342  -13.1668  -24.6539 H   0  0  0  0  0  0  0  0  0  0  0  0
  -17.5515  -16.3207  -23.1811 H   0  0  0  0  0  0  0  0  0  0  0  0
  -14.4763  -19.2389  -27.8422 H   0  0  0  0  0  0  0  0  0  0  0  0
  -14.2408  -21.6771  -28.0426 H   0  0  0  0  0  0  0  0  0  0  0  0
  -15.7399  -22.1477  -24.0588 H   0  0  0  0  0  0  0  0  0  0  0  0
  -16.0149  -19.7073  -23.8676 H   0  0  0  0  0  0  0  0  0  0  0  0
  -17.0727  -23.6396  -26.4776 H   0  0  0  0  0  0  0  0  0  0  0  0
  -16.1306  -23.5011  -28.0007 H   0  0  0  0  0  0  0  0  0  0  0  0
  -16.0637  -25.9468  -26.1465 H   0  0  0  0  0  0  0  0  0  0  0  0
  -17.0889  -25.8115  -27.6153 H   0  0  0  0  0  0  0  0  0  0  0  0
  -13.5945  -26.1565  -26.3652 H   0  0  0  0  0  0  0  0  0  0  0  0
  -12.8062  -25.7133  -27.9173 H   0  0  0  0  0  0  0  0  0  0  0  0
  -13.3935  -23.4122  -27.7001 H   0  0  0  0  0  0  0  0  0  0  0  0
  -12.8380  -23.9068  -26.0650 H   0  0  0  0  0  0  0  0  0  0  0  0
  -14.1317  -27.6031  -29.0124 H   0  0  0  0  0  0  0  0  0  0  0  0
  -14.9800  -27.9638  -27.4707 H   0  0  0  0  0  0  0  0  0  0  0  0
  -15.9263  -27.5648  -28.9444 H   0  0  0  0  0  0  0  0  0  0  0  0
  -14.4921  -15.6223  -29.6163 H   0  0  0  0  0  0  0  0  0  0  0  0
  -12.9684  -14.7966  -29.1441 H   0  0  0  0  0  0  0  0  0  0  0  0
  -13.3490  -16.4242  -28.4864 H   0  0  0  0  0  0  0  0  0  0  0  0
  1  2  2  0  0  0  0
  1  3  1  0  0  0  0
  1 26  1  0  0  0  0
  2  4  1  0  0  0  0
  2  5  1  0  0  0  0
  3  6  2  0  0  0  0
  4  7  2  0  0  0  0
  4  8  1  0  0  0  0
  5 11  2  0  0  0  0
  6  7  1  0  0  0  0
  6 18  1  0  0  0  0
  8  9  2  0  0  0  0
  8 10  1  0  0  0  0
  9 11  1  0  0  0  0
 11 12  1  0  0  0  0
 12 13  2  0  0  0  0
 12 17  1  0  0  0  0
 13 14  1  0  0  0  0
 14 15  2  0  0  0  0
 15 16  1  0  0  0  0
 15 19  1  0  0  0  0
 16 17  2  0  0  0  0
 19 20  1  0  0  0  0
 19 24  1  0  0  0  0
 20 21  1  0  0  0  0
 21 22  1  0  0  0  0
 22 23  1  0  0  0  0
 22 25  1  0  0  0  0
 23 24  1  0  0  0  0
  3 27  1  0  0  0  0
  7 28  1  0  0  0  0
 10 29  1  0  0  0  0
 13 30  1  0  0  0  0
 14 31  1  0  0  0  0
 16 32  1  0  0  0  0
 17 33  1  0  0  0  0
 20 34  1  0  0  0  0
 20 35  1  0  0  0  0
 21 36  1  0  0  0  0
 21 37  1  0  0  0  0
 23 38  1  0  0  0  0
 23 39  1  0  0  0  0
 24 40  1  0  0  0  0
 24 41  1  0  0  0  0
 25 42  1  0  0  0  0
 25 43  1  0  0  0  0
 25 44  1  0  0  0  0
 26 45  1  0  0  0  0
 26 46  1  0  0  0  0
 26 47  1  0  0  0  0
M  END
> <Name>
8b

> <IC50[nM]>
1.8

$$$$
8b
  -OEChem-05192314333D
 Structure written by MMmdl.
 47 50  0     1  0  0  0  0  0999 V2000
  -14.4976  -14.8078  -27.6041 C   0  0  0  0  0  0  0  0  0  0  0  0
  -15.0860  -15.6146  -26.6121 C   0  0  0  0  0  0  0  0  0  0  0  0
  -14.5776  -13.4189  -27.4910 C   0  0  0  0  0  0  0  0  0  0  0  0
  -15.7974  -15.0175  -25.5617 C   0  0  0  0  0  0  0  0  0  0  0  0
  -14.9497  -17.0161  -26.6693 N   0  0  0  0  0  0  0  0  0  0  0  0
  -15.2599  -12.8300  -26.4299 C   0  0  3  0  0  0  0  0  0  0  0  0
  -15.8868  -13.6238  -25.4651 C   0  0  0  0  0  0  0  0  0  0  0  0
  -16.4709  -15.9214  -24.5493 C   0  0  0  0  0  0  0  0  0  0  0  0
  -16.1516  -17.2326  -24.7414 N   0  0  0  0  0  0  0  0  0  0  0  0
  -17.2464  -15.5613  -23.6634 O   0  0  0  0  0  0  0  0  0  0  0  0
  -15.4317  -17.8110  -25.7710 C   0  0  0  0  0  0  0  0  0  0  0  0
  -15.2745  -19.2883  -25.8445 C   0  0  0  0  0  0  0  0  0  0  0  0
  -14.7650  -19.8714  -27.0158 C   0  0  0  0  0  0  0  0  0  0  0  0
  -14.6263  -21.2503  -27.1285 C   0  0  0  0  0  0  0  0  0  0  0  0
  -14.9818  -22.0879  -26.0683 C   0  0  0  0  0  0  0  0  0  0  0  0
  -15.4738  -21.5135  -24.8915 C   0  0  0  0  0  0  0  0  0  0  0  0
  -15.6247  -20.1316  -24.7809 C   0  0  0  0  0  0  0  0  0  0  0  0
  -15.3111  -11.4823  -26.3542 F   0  0  0  0  0  0  0  0  0  0  0  0
  -14.9414  -23.4608  -26.2022 N   0  0  0  0  0  0  0  0  0  0  0  0
  -16.1549  -23.9516  -26.9975 C   0  0  0  0  0  0  0  0  0  0  0  0
  -16.1562  -25.4776  -27.1371 C   0  0  0  0  0  0  0  0  0  0  0  0
  -14.9559  -25.8533  -28.0095 N   0  0  0  0  0  0  0  0  0  0  0  0
  -13.6649  -25.5179  -27.2581 C   0  0  0  0  0  0  0  0  0  0  0  0
  -13.6349  -24.0190  -26.8149 C   0  0  0  0  0  0  0  0  0  0  0  0
  -15.0017  -27.3550  -28.3866 C   0  0  0  0  0  0  0  0  0  0  0  0
  -13.7753  -15.4592  -28.7980 C   0  0  0  0  0  0  0  0  0  0  0  0
  -14.1051  -12.7943  -28.2347 H   0  0  0  0  0  0  0  0  0  0  0  0
  -14.3360  -12.8305  -25.8329 H   0  0  0  0  0  0  0  0  0  0  0  0
  -16.4342  -13.1668  -24.6539 H   0  0  0  0  0  0  0  0  0  0  0  0
  -14.4763  -19.2389  -27.8422 H   0  0  0  0  0  0  0  0  0  0  0  0
  -14.2408  -21.6771  -28.0426 H   0  0  0  0  0  0  0  0  0  0  0  0
  -15.7399  -22.1477  -24.0588 H   0  0  0  0  0  0  0  0  0  0  0  0
  -16.0149  -19.7073  -23.8676 H   0  0  0  0  0  0  0  0  0  0  0  0
  -17.0727  -23.6396  -26.4776 H   0  0  0  0  0  0  0  0  0  0  0  0
  -16.1306  -23.5011  -28.0007 H   0  0  0  0  0  0  0  0  0  0  0  0
  -16.0637  -25.9468  -26.1465 H   0  0  0  0  0  0  0  0  0  0  0  0
  -17.0889  -25.8115  -27.6153 H   0  0  0  0  0  0  0  0  0  0  0  0
  -13.5945  -26.1565  -26.3652 H   0  0  0  0  0  0  0  0  0  0  0  0
  -12.8062  -25.7133  -27.9173 H   0  0  0  0  0  0  0  0  0  0  0  0
  -13.3935  -23.4122  -27.7001 H   0  0  0  0  0  0  0  0  0  0  0  0
  -12.8380  -23.9068  -26.0650 H   0  0  0  0  0  0  0  0  0  0  0  0
  -14.1317  -27.6031  -29.0124 H   0  0  0  0  0  0  0  0  0  0  0  0
  -14.9800  -27.9638  -27.4707 H   0  0  0  0  0  0  0  0  0  0  0  0
  -15.9263  -27.5648  -28.9444 H   0  0  0  0  0  0  0  0  0  0  0  0
  -13.3834  -14.6750  -29.4624 H   0  0  0  0  0  0  0  0  0  0  0  0
  -12.9432  -16.0775  -28.4300 H   0  0  0  0  0  0  0  0  0  0  0  0
  -14.4833  -16.0909  -29.3545 H   0  0  0  0  0  0  0  0  0  0  0  0
  1  2  1  0  0  0  0
  1  3  2  0  0  0  0
  1 26  1  0  0  0  0
  2  4  1  0  0  0  0
  2  5  2  0  0  0  0
  3  6  1  0  0  0  0
  4  7  2  0  0  0  0
  4  8  1  0  0  0  0
  5 11  1  0  0  0  0
  6  7  1  0  0  0  0
  6 18  1  0  0  0  0
  8  9  1  0  0  0  0
  8 10  2  0  0  0  0
  9 11  2  0  0  0  0
 11 12  1  0  0  0  0
 12 13  2  0  0  0  0
 12 17  1  0  0  0  0
 13 14  1  0  0  0  0
 14 15  2  0  0  0  0
 15 16  1  0  0  0  0
 15 19  1  0  0  0  0
 16 17  2  0  0  0  0
 19 20  1  0  0  0  0
 19 24  1  0  0  0  0
 20 21  1  0  0  0  0
 21 22  1  0  0  0  0
 22 23  1  0  0  0  0
 22 25  1  0  0  0  0
 23 24  1  0  0  0  0
  3 27  1  0  0  0  0
  6 28  1  0  0  0  0
  7 29  1  0  0  0  0
 13 30  1  0  0  0  0
 14 31  1  0  0  0  0
 16 32  1  0  0  0  0
 17 33  1  0  0  0  0
 20 34  1  0  0  0  0
 20 35  1  0  0  0  0
 21 36  1  0  0  0  0
 21 37  1  0  0  0  0
 23 38  1  0  0  0  0
 23 39  1  0  0  0  0
 24 40  1  0  0  0  0
 24 41  1  0  0  0  0
 25 42  1  0  0  0  0
 25 43  1  0  0  0  0
 25 44  1  0  0  0  0
 26 45  1  0  0  0  0
 26 46  1  0  0  0  0
 26 47  1  0  0  0  0
M  END
> <Name>
8b

> <IC50[nM]>
1.8

$$$$
8b
  -OEChem-05192314333D
 Structure written by MMmdl.
 47 50  0     1  0  0  0  0  0999 V2000
  -14.4976  -14.8078  -27.6041 C   0  0  3  0  0  0  0  0  0  0  0  0
  -15.0860  -15.6146  -26.6121 C   0  0  0  0  0  0  0  0  0  0  0  0
  -14.5776  -13.4189  -27.4910 C   0  0  0  0  0  0  0  0  0  0  0  0
  -15.7974  -15.0175  -25.5617 C   0  0  0  0  0  0  0  0  0  0  0  0
  -14.9497  -17.0161  -26.6693 N   0  0  0  0  0  0  0  0  0  0  0  0
  -15.2599  -12.8300  -26.4299 C   0  0  0  0  0  0  0  0  0  0  0  0
  -15.8868  -13.6238  -25.4651 C   0  0  0  0  0  0  0  0  0  0  0  0
  -16.4709  -15.9214  -24.5493 C   0  0  0  0  0  0  0  0  0  0  0  0
  -16.1516  -17.2326  -24.7414 N   0  0  0  0  0  0  0  0  0  0  0  0
  -17.2464  -15.5613  -23.6634 O   0  0  0  0  0  0  0  0  0  0  0  0
  -15.4317  -17.8110  -25.7710 C   0  0  0  0  0  0  0  0  0  0  0  0
  -15.2745  -19.2883  -25.8445 C   0  0  0  0  0  0  0  0  0  0  0  0
  -14.7650  -19.8714  -27.0158 C   0  0  0  0  0  0  0  0  0  0  0  0
  -14.6263  -21.2503  -27.1285 C   0  0  0  0  0  0  0  0  0  0  0  0
  -14.9818  -22.0879  -26.0683 C   0  0  0  0  0  0  0  0  0  0  0  0
  -15.4738  -21.5135  -24.8915 C   0  0  0  0  0  0  0  0  0  0  0  0
  -15.6247  -20.1316  -24.7809 C   0  0  0  0  0  0  0  0  0  0  0  0
  -15.3111  -11.4823  -26.3542 F   0  0  0  0  0  0  0  0  0  0  0  0
  -14.9414  -23.4608  -26.2022 N   0  0  0  0  0  0  0  0  0  0  0  0
  -16.1549  -23.9516  -26.9975 C   0  0  0  0  0  0  0  0  0  0  0  0
  -16.1562  -25.4776  -27.1371 C   0  0  0  0  0  0  0  0  0  0  0  0
  -14.9559  -25.8533  -28.0095 N   0  0  0  0  0  0  0  0  0  0  0  0
  -13.6649  -25.5179  -27.2581 C   0  0  0  0  0  0  0  0  0  0  0  0
  -13.6349  -24.0190  -26.8149 C   0  0  0  0  0  0  0  0  0  0  0  0
  -15.0017  -27.3550  -28.3866 C   0  0  0  0  0  0  0  0  0  0  0  0
  -13.7753  -15.4592  -28.7980 C   0  0  0  0  0  0  0  0  0  0  0  0
  -13.5545  -14.7996  -27.0380 H   0  0  0  0  0  0  0  0  0  0  0  0
  -14.1051  -12.7943  -28.2347 H   0  0  0  0  0  0  0  0  0  0  0  0
  -16.4342  -13.1668  -24.6539 H   0  0  0  0  0  0  0  0  0  0  0  0
  -14.4763  -19.2389  -27.8422 H   0  0  0  0  0  0  0  0  0  0  0  0
  -14.2408  -21.6771  -28.0426 H   0  0  0  0  0  0  0  0  0  0  0  0
  -15.7399  -22.1477  -24.0588 H   0  0  0  0  0  0  0  0  0  0  0  0
  -16.0149  -19.7073  -23.8676 H   0  0  0  0  0  0  0  0  0  0  0  0
  -17.0727  -23.6396  -26.4776 H   0  0  0  0  0  0  0  0  0  0  0  0
  -16.1306  -23.5011  -28.0007 H   0  0  0  0  0  0  0  0  0  0  0  0
  -16.0637  -25.9468  -26.1465 H   0  0  0  0  0  0  0  0  0  0  0  0
  -17.0889  -25.8115  -27.6153 H   0  0  0  0  0  0  0  0  0  0  0  0
  -13.5945  -26.1565  -26.3652 H   0  0  0  0  0  0  0  0  0  0  0  0
  -12.8062  -25.7133  -27.9173 H   0  0  0  0  0  0  0  0  0  0  0  0
  -13.3935  -23.4122  -27.7001 H   0  0  0  0  0  0  0  0  0  0  0  0
  -12.8380  -23.9068  -26.0650 H   0  0  0  0  0  0  0  0  0  0  0  0
  -14.1317  -27.6031  -29.0124 H   0  0  0  0  0  0  0  0  0  0  0  0
  -14.9800  -27.9638  -27.4707 H   0  0  0  0  0  0  0  0  0  0  0  0
  -15.9263  -27.5648  -28.9444 H   0  0  0  0  0  0  0  0  0  0  0  0
  -13.3834  -14.6750  -29.4624 H   0  0  0  0  0  0  0  0  0  0  0  0
  -12.9432  -16.0775  -28.4300 H   0  0  0  0  0  0  0  0  0  0  0  0
  -14.4833  -16.0909  -29.3545 H   0  0  0  0  0  0  0  0  0  0  0  0
  1  2  1  0  0  0  0
  1  3  1  0  0  0  0
  1 26  1  0  0  0  0
  2  4  1  0  0  0  0
  2  5  2  0  0  0  0
  3  6  2  0  0  0  0
  4  7  2  0  0  0  0
  4  8  1  0  0  0  0
  5 11  1  0  0  0  0
  6  7  1  0  0  0  0
  6 18  1  0  0  0  0
  8  9  1  0  0  0  0
  8 10  2  0  0  0  0
  9 11  2  0  0  0  0
 11 12  1  0  0  0  0
 12 13  2  0  0  0  0
 12 17  1  0  0  0  0
 13 14  1  0  0  0  0
 14 15  2  0  0  0  0
 15 16  1  0  0  0  0
 15 19  1  0  0  0  0
 16 17  2  0  0  0  0
 19 20  1  0  0  0  0
 19 24  1  0  0  0  0
 20 21  1  0  0  0  0
 21 22  1  0  0  0  0
 22 23  1  0  0  0  0
 22 25  1  0  0  0  0
 23 24  1  0  0  0  0
  1 27  1  0  0  0  0
  3 28  1  0  0  0  0
  7 29  1  0  0  0  0
 13 30  1  0  0  0  0
 14 31  1  0  0  0  0
 16 32  1  0  0  0  0
 17 33  1  0  0  0  0
 20 34  1  0  0  0  0
 20 35  1  0  0  0  0
 21 36  1  0  0  0  0
 21 37  1  0  0  0  0
 23 38  1  0  0  0  0
 23 39  1  0  0  0  0
 24 40  1  0  0  0  0
 24 41  1  0  0  0  0
 25 42  1  0  0  0  0
 25 43  1  0  0  0  0
 25 44  1  0  0  0  0
 26 45  1  0  0  0  0
 26 46  1  0  0  0  0
 26 47  1  0  0  0  0
M  END
> <Name>
8b

> <IC50[nM]>
1.8

$$$$
8b
  -OEChem-05192314333D
 Structure written by MMmdl.
 47 50  0     1  0  0  0  0  0999 V2000
  -14.4976  -14.8078  -27.6041 C   0  0  0  0  0  0  0  0  0  0  0  0
  -15.0860  -15.6146  -26.6121 C   0  0  0  0  0  0  0  0  0  0  0  0
  -14.5776  -13.4189  -27.4910 C   0  0  0  0  0  0  0  0  0  0  0  0
  -15.7974  -15.0175  -25.5617 C   0  0  3  0  0  0  0  0  0  0  0  0
  -14.9497  -17.0161  -26.6693 N   0  0  0  0  0  0  0  0  0  0  0  0
  -15.2599  -12.8300  -26.4299 C   0  0  0  0  0  0  0  0  0  0  0  0
  -15.8868  -13.6238  -25.4651 C   0  0  0  0  0  0  0  0  0  0  0  0
  -16.4709  -15.9214  -24.5493 C   0  0  0  0  0  0  0  0  0  0  0  0
  -16.1516  -17.2326  -24.7414 N   0  0  0  0  0  0  0  0  0  0  0  0
  -17.2464  -15.5613  -23.6634 O   0  0  0  0  0  0  0  0  0  0  0  0
  -15.4317  -17.8110  -25.7710 C   0  0  0  0  0  0  0  0  0  0  0  0
  -15.2745  -19.2883  -25.8445 C   0  0  0  0  0  0  0  0  0  0  0  0
  -14.7650  -19.8714  -27.0158 C   0  0  0  0  0  0  0  0  0  0  0  0
  -14.6263  -21.2503  -27.1285 C   0  0  0  0  0  0  0  0  0  0  0  0
  -14.9818  -22.0879  -26.0683 C   0  0  0  0  0  0  0  0  0  0  0  0
  -15.4738  -21.5135  -24.8915 C   0  0  0  0  0  0  0  0  0  0  0  0
  -15.6247  -20.1316  -24.7809 C   0  0  0  0  0  0  0  0  0  0  0  0
  -15.3111  -11.4823  -26.3542 F   0  0  0  0  0  0  0  0  0  0  0  0
  -14.9414  -23.4608  -26.2022 N   0  0  0  0  0  0  0  0  0  0  0  0
  -16.1549  -23.9516  -26.9975 C   0  0  0  0  0  0  0  0  0  0  0  0
  -16.1562  -25.4776  -27.1371 C   0  0  0  0  0  0  0  0  0  0  0  0
  -14.9559  -25.8533  -28.0095 N   0  0  0  0  0  0  0  0  0  0  0  0
  -13.6649  -25.5179  -27.2581 C   0  0  0  0  0  0  0  0  0  0  0  0
  -13.6349  -24.0190  -26.8149 C   0  0  0  0  0  0  0  0  0  0  0  0
  -15.0017  -27.3550  -28.3866 C   0  0  0  0  0  0  0  0  0  0  0  0
  -13.7753  -15.4592  -28.7980 C   0  0  0  0  0  0  0  0  0  0  0  0
  -14.1051  -12.7943  -28.2347 H   0  0  0  0  0  0  0  0  0  0  0  0
  -14.8851  -15.0045  -24.9473 H   0  0  0  0  0  0  0  0  0  0  0  0
  -16.4342  -13.1668  -24.6539 H   0  0  0  0  0  0  0  0  0  0  0  0
  -14.4763  -19.2389  -27.8422 H   0  0  0  0  0  0  0  0  0  0  0  0
  -14.2408  -21.6771  -28.0426 H   0  0  0  0  0  0  0  0  0  0  0  0
  -15.7399  -22.1477  -24.0588 H   0  0  0  0  0  0  0  0  0  0  0  0
  -16.0149  -19.7073  -23.8676 H   0  0  0  0  0  0  0  0  0  0  0  0
  -17.0727  -23.6396  -26.4776 H   0  0  0  0  0  0  0  0  0  0  0  0
  -16.1306  -23.5011  -28.0007 H   0  0  0  0  0  0  0  0  0  0  0  0
  -16.0637  -25.9468  -26.1465 H   0  0  0  0  0  0  0  0  0  0  0  0
  -17.0889  -25.8115  -27.6153 H   0  0  0  0  0  0  0  0  0  0  0  0
  -13.5945  -26.1565  -26.3652 H   0  0  0  0  0  0  0  0  0  0  0  0
  -12.8062  -25.7133  -27.9173 H   0  0  0  0  0  0  0  0  0  0  0  0
  -13.3935  -23.4122  -27.7001 H   0  0  0  0  0  0  0  0  0  0  0  0
  -12.8380  -23.9068  -26.0650 H   0  0  0  0  0  0  0  0  0  0  0  0
  -14.1317  -27.6031  -29.0124 H   0  0  0  0  0  0  0  0  0  0  0  0
  -14.9800  -27.9638  -27.4707 H   0  0  0  0  0  0  0  0  0  0  0  0
  -15.9263  -27.5648  -28.9444 H   0  0  0  0  0  0  0  0  0  0  0  0
  -13.3834  -14.6750  -29.4624 H   0  0  0  0  0  0  0  0  0  0  0  0
  -12.9432  -16.0775  -28.4300 H   0  0  0  0  0  0  0  0  0  0  0  0
  -14.4833  -16.0909  -29.3545 H   0  0  0  0  0  0  0  0  0  0  0  0
  1  2  1  0  0  0  0
  1  3  2  0  0  0  0
  1 26  1  0  0  0  0
  2  4  1  0  0  0  0
  2  5  2  0  0  0  0
  3  6  1  0  0  0  0
  4  7  1  0  0  0  0
  4  8  1  0  0  0  0
  5 11  1  0  0  0  0
  6  7  2  0  0  0  0
  6 18  1  0  0  0  0
  8  9  1  0  0  0  0
  8 10  2  0  0  0  0
  9 11  2  0  0  0  0
 11 12  1  0  0  0  0
 12 13  2  0  0  0  0
 12 17  1  0  0  0  0
 13 14  1  0  0  0  0
 14 15  2  0  0  0  0
 15 16  1  0  0  0  0
 15 19  1  0  0  0  0
 16 17  2  0  0  0  0
 19 20  1  0  0  0  0
 19 24  1  0  0  0  0
 20 21  1  0  0  0  0
 21 22  1  0  0  0  0
 22 23  1  0  0  0  0
 22 25  1  0  0  0  0
 23 24  1  0  0  0  0
  3 27  1  0  0  0  0
  4 28  1  0  0  0  0
  7 29  1  0  0  0  0
 13 30  1  0  0  0  0
 14 31  1  0  0  0  0
 16 32  1  0  0  0  0
 17 33  1  0  0  0  0
 20 34  1  0  0  0  0
 20 35  1  0  0  0  0
 21 36  1  0  0  0  0
 21 37  1  0  0  0  0
 23 38  1  0  0  0  0
 23 39  1  0  0  0  0
 24 40  1  0  0  0  0
 24 41  1  0  0  0  0
 25 42  1  0  0  0  0
 25 43  1  0  0  0  0
 25 44  1  0  0  0  0
 26 45  1  0  0  0  0
 26 46  1  0  0  0  0
 26 47  1  0  0  0  0
M  END
> <Name>
8b

> <IC50[nM]>
1.8

$$$$
