5e
  -OEChem-05192314333D
 Structure written by MMmdl.
 37 39  0     0  0  0  0  0  0999 V2000
  -14.6145  -14.8753  -27.6783 C   0  0  0  0  0  0  0  0  0  0  0  0
  -15.1464  -15.6452  -26.6477 C   0  0  0  0  0  0  0  0  0  0  0  0
  -14.7773  -13.4982  -27.6334 C   0  0  0  0  0  0  0  0  0  0  0  0
  -15.8626  -15.0639  -25.5930 C   0  0  0  0  0  0  0  0  0  0  0  0
  -14.9335  -17.0116  -26.6934 N   0  0  0  0  0  0  0  0  0  0  0  0
  -15.4592  -12.9286  -26.5614 C   0  0  0  0  0  0  0  0  0  0  0  0
  -16.0212  -13.6877  -25.5413 C   0  0  0  0  0  0  0  0  0  0  0  0
  -16.4561  -15.9663  -24.5344 C   0  0  0  0  0  0  0  0  0  0  0  0
  -16.1772  -17.2727  -24.7852 N   0  0  0  0  0  0  0  0  0  0  0  0
  -17.1375  -15.6099  -23.5713 O   0  0  0  0  0  0  0  0  0  0  0  0
  -15.4463  -17.8122  -25.8274 C   0  0  0  0  0  0  0  0  0  0  0  0
  -15.3013  -19.2577  -25.9685 C   0  0  0  0  0  0  0  0  0  0  0  0
  -15.7883  -20.1437  -25.0032 C   0  0  0  0  0  0  0  0  0  0  0  0
  -15.5853  -21.5050  -25.1666 C   0  0  0  0  0  0  0  0  0  0  0  0
  -14.9212  -21.9889  -26.3002 C   0  0  0  0  0  0  0  0  0  0  0  0
  -14.4497  -21.1036  -27.2603 C   0  0  0  0  0  0  0  0  0  0  0  0
  -14.6471  -19.7514  -27.1044 C   0  0  0  0  0  0  0  0  0  0  0  0
  -14.5675  -23.4595  -26.4211 C   0  0  0  0  0  0  0  0  0  0  0  0
  -14.2543  -23.8948  -27.7188 O   0  0  0  0  0  0  0  0  0  0  0  0
  -15.5911  -11.2537  -26.4871 Cl  0  0  0  0  0  0  0  0  0  0  0  0
  -15.7371  -24.3734  -26.1449 C   0  0  0  0  0  0  0  0  0  0  0  0
  -13.3528  -23.6876  -25.5352 C   0  0  0  0  0  0  0  0  0  0  0  0
  -14.0855  -15.3408  -28.4967 H   0  0  0  0  0  0  0  0  0  0  0  0
  -14.3797  -12.8752  -28.4209 H   0  0  0  0  0  0  0  0  0  0  0  0
  -16.5645  -13.2198  -24.7336 H   0  0  0  0  0  0  0  0  0  0  0  0
  -16.5495  -17.9299  -24.1299 H   0  0  0  0  0  0  0  0  0  0  0  0
  -16.3175  -19.7712  -24.1386 H   0  0  0  0  0  0  0  0  0  0  0  0
  -15.9410  -22.1955  -24.4162 H   0  0  0  0  0  0  0  0  0  0  0  0
  -13.9281  -21.4767  -28.1293 H   0  0  0  0  0  0  0  0  0  0  0  0
  -14.2958  -19.0665  -27.8620 H   0  0  0  0  0  0  0  0  0  0  0  0
  -14.0469  -24.8217  -27.7009 H   0  0  0  0  0  0  0  0  0  0  0  0
  -15.4171  -25.4207  -26.2482 H   0  0  0  0  0  0  0  0  0  0  0  0
  -16.1032  -24.2012  -25.1220 H   0  0  0  0  0  0  0  0  0  0  0  0
  -16.5435  -24.1640  -26.8631 H   0  0  0  0  0  0  0  0  0  0  0  0
  -13.0537  -24.7449  -25.5872 H   0  0  0  0  0  0  0  0  0  0  0  0
  -12.5226  -23.0544  -25.8813 H   0  0  0  0  0  0  0  0  0  0  0  0
  -13.6032  -23.4282  -24.4960 H   0  0  0  0  0  0  0  0  0  0  0  0
  1  2  2  0  0  0  0
  1  3  1  0  0  0  0
  2  4  1  0  0  0  0
  2  5  1  0  0  0  0
  3  6  2  0  0  0  0
  4  7  2  0  0  0  0
  4  8  1  0  0  0  0
  5 11  2  0  0  0  0
  6  7  1  0  0  0  0
  6 20  1  0  0  0  0
  8  9  1  0  0  0  0
  8 10  2  0  0  0  0
  9 11  1  0  0  0  0
 11 12  1  0  0  0  0
 12 13  2  0  0  0  0
 12 17  1  0  0  0  0
 13 14  1  0  0  0  0
 14 15  2  0  0  0  0
 15 16  1  0  0  0  0
 15 18  1  0  0  0  0
 16 17  2  0  0  0  0
 18 19  1  0  0  0  0
 18 21  1  0  0  0  0
 18 22  1  0  0  0  0
  1 23  1  0  0  0  0
  3 24  1  0  0  0  0
  7 25  1  0  0  0  0
  9 26  1  0  0  0  0
 13 27  1  0  0  0  0
 14 28  1  0  0  0  0
 16 29  1  0  0  0  0
 17 30  1  0  0  0  0
 19 31  1  0  0  0  0
 21 32  1  0  0  0  0
 21 33  1  0  0  0  0
 21 34  1  0  0  0  0
 22 35  1  0  0  0  0
 22 36  1  0  0  0  0
 22 37  1  0  0  0  0
M  END
> <Name>
5e

> <IC50[nM]>
39

$$$$
5e
  -OEChem-05192314333D
 Structure written by MMmdl.
 37 39  0     0  0  0  0  0  0999 V2000
  -14.6145  -14.8753  -27.6783 C   0  0  0  0  0  0  0  0  0  0  0  0
  -15.1464  -15.6452  -26.6477 C   0  0  0  0  0  0  0  0  0  0  0  0
  -14.7773  -13.4982  -27.6334 C   0  0  0  0  0  0  0  0  0  0  0  0
  -15.8626  -15.0639  -25.5930 C   0  0  0  0  0  0  0  0  0  0  0  0
  -14.9335  -17.0116  -26.6934 N   0  0  0  0  0  0  0  0  0  0  0  0
  -15.4592  -12.9286  -26.5614 C   0  0  0  0  0  0  0  0  0  0  0  0
  -16.0212  -13.6877  -25.5413 C   0  0  0  0  0  0  0  0  0  0  0  0
  -16.4561  -15.9663  -24.5344 C   0  0  0  0  0  0  0  0  0  0  0  0
  -16.1772  -17.2727  -24.7852 N   0  0  0  0  0  0  0  0  0  0  0  0
  -17.1375  -15.6099  -23.5713 O   0  0  0  0  0  0  0  0  0  0  0  0
  -15.4463  -17.8122  -25.8274 C   0  0  0  0  0  0  0  0  0  0  0  0
  -15.3013  -19.2577  -25.9685 C   0  0  0  0  0  0  0  0  0  0  0  0
  -15.7883  -20.1437  -25.0032 C   0  0  0  0  0  0  0  0  0  0  0  0
  -15.5853  -21.5050  -25.1666 C   0  0  0  0  0  0  0  0  0  0  0  0
  -14.9212  -21.9889  -26.3002 C   0  0  0  0  0  0  0  0  0  0  0  0
  -14.4497  -21.1036  -27.2603 C   0  0  0  0  0  0  0  0  0  0  0  0
  -14.6471  -19.7514  -27.1044 C   0  0  0  0  0  0  0  0  0  0  0  0
  -14.5675  -23.4595  -26.4211 C   0  0  0  0  0  0  0  0  0  0  0  0
  -14.2543  -23.8948  -27.7188 O   0  0  0  0  0  0  0  0  0  0  0  0
  -15.5911  -11.2537  -26.4871 Cl  0  0  0  0  0  0  0  0  0  0  0  0
  -15.7371  -24.3734  -26.1449 C   0  0  0  0  0  0  0  0  0  0  0  0
  -13.3528  -23.6876  -25.5352 C   0  0  0  0  0  0  0  0  0  0  0  0
  -14.0855  -15.3408  -28.4967 H   0  0  0  0  0  0  0  0  0  0  0  0
  -14.3797  -12.8752  -28.4209 H   0  0  0  0  0  0  0  0  0  0  0  0
  -14.3628  -17.3885  -27.4229 H   0  0  0  0  0  0  0  0  0  0  0  0
  -16.5645  -13.2198  -24.7336 H   0  0  0  0  0  0  0  0  0  0  0  0
  -16.3175  -19.7712  -24.1386 H   0  0  0  0  0  0  0  0  0  0  0  0
  -15.9410  -22.1955  -24.4162 H   0  0  0  0  0  0  0  0  0  0  0  0
  -13.9281  -21.4767  -28.1293 H   0  0  0  0  0  0  0  0  0  0  0  0
  -14.2958  -19.0665  -27.8620 H   0  0  0  0  0  0  0  0  0  0  0  0
  -14.0469  -24.8217  -27.7009 H   0  0  0  0  0  0  0  0  0  0  0  0
  -15.4171  -25.4207  -26.2482 H   0  0  0  0  0  0  0  0  0  0  0  0
  -16.1032  -24.2012  -25.1220 H   0  0  0  0  0  0  0  0  0  0  0  0
  -16.5435  -24.1640  -26.8631 H   0  0  0  0  0  0  0  0  0  0  0  0
  -13.0537  -24.7449  -25.5872 H   0  0  0  0  0  0  0  0  0  0  0  0
  -12.5226  -23.0544  -25.8813 H   0  0  0  0  0  0  0  0  0  0  0  0
  -13.6032  -23.4282  -24.4960 H   0  0  0  0  0  0  0  0  0  0  0  0
  1  2  2  0  0  0  0
  1  3  1  0  0  0  0
  2  4  1  0  0  0  0
  2  5  1  0  0  0  0
  3  6  2  0  0  0  0
  4  7  2  0  0  0  0
  4  8  1  0  0  0  0
  5 11  1  0  0  0  0
  6  7  1  0  0  0  0
  6 20  1  0  0  0  0
  8  9  1  0  0  0  0
  8 10  2  0  0  0  0
  9 11  2  0  0  0  0
 11 12  1  0  0  0  0
 12 13  2  0  0  0  0
 12 17  1  0  0  0  0
 13 14  1  0  0  0  0
 14 15  2  0  0  0  0
 15 16  1  0  0  0  0
 15 18  1  0  0  0  0
 16 17  2  0  0  0  0
 18 19  1  0  0  0  0
 18 21  1  0  0  0  0
 18 22  1  0  0  0  0
  1 23  1  0  0  0  0
  3 24  1  0  0  0  0
  5 25  1  0  0  0  0
  7 26  1  0  0  0  0
 13 27  1  0  0  0  0
 14 28  1  0  0  0  0
 16 29  1  0  0  0  0
 17 30  1  0  0  0  0
 19 31  1  0  0  0  0
 21 32  1  0  0  0  0
 21 33  1  0  0  0  0
 21 34  1  0  0  0  0
 22 35  1  0  0  0  0
 22 36  1  0  0  0  0
 22 37  1  0  0  0  0
M  END
> <Name>
5e

> <IC50[nM]>
39

$$$$
5e
  -OEChem-05192314333D
 Structure written by MMmdl.
 37 39  0     0  0  0  0  0  0999 V2000
  -14.6145  -14.8753  -27.6783 C   0  0  0  0  0  0  0  0  0  0  0  0
  -15.1464  -15.6452  -26.6477 C   0  0  0  0  0  0  0  0  0  0  0  0
  -14.7773  -13.4982  -27.6334 C   0  0  0  0  0  0  0  0  0  0  0  0
  -15.8626  -15.0639  -25.5930 C   0  0  0  0  0  0  0  0  0  0  0  0
  -14.9335  -17.0116  -26.6934 N   0  0  0  0  0  0  0  0  0  0  0  0
  -15.4592  -12.9286  -26.5614 C   0  0  0  0  0  0  0  0  0  0  0  0
  -16.0212  -13.6877  -25.5413 C   0  0  0  0  0  0  0  0  0  0  0  0
  -16.4561  -15.9663  -24.5344 C   0  0  0  0  0  0  0  0  0  0  0  0
  -16.1772  -17.2727  -24.7852 N   0  0  0  0  0  0  0  0  0  0  0  0
  -17.1375  -15.6099  -23.5713 O   0  0  0  0  0  0  0  0  0  0  0  0
  -15.4463  -17.8122  -25.8274 C   0  0  0  0  0  0  0  0  0  0  0  0
  -15.3013  -19.2577  -25.9685 C   0  0  0  0  0  0  0  0  0  0  0  0
  -15.7883  -20.1437  -25.0032 C   0  0  0  0  0  0  0  0  0  0  0  0
  -15.5853  -21.5050  -25.1666 C   0  0  0  0  0  0  0  0  0  0  0  0
  -14.9212  -21.9889  -26.3002 C   0  0  0  0  0  0  0  0  0  0  0  0
  -14.4497  -21.1036  -27.2603 C   0  0  0  0  0  0  0  0  0  0  0  0
  -14.6471  -19.7514  -27.1044 C   0  0  0  0  0  0  0  0  0  0  0  0
  -14.5675  -23.4595  -26.4211 C   0  0  0  0  0  0  0  0  0  0  0  0
  -14.2543  -23.8948  -27.7188 O   0  0  0  0  0  0  0  0  0  0  0  0
  -15.5911  -11.2537  -26.4871 Cl  0  0  0  0  0  0  0  0  0  0  0  0
  -15.7371  -24.3734  -26.1449 C   0  0  0  0  0  0  0  0  0  0  0  0
  -13.3528  -23.6876  -25.5352 C   0  0  0  0  0  0  0  0  0  0  0  0
  -14.0855  -15.3408  -28.4967 H   0  0  0  0  0  0  0  0  0  0  0  0
  -14.3797  -12.8752  -28.4209 H   0  0  0  0  0  0  0  0  0  0  0  0
  -16.5645  -13.2198  -24.7336 H   0  0  0  0  0  0  0  0  0  0  0  0
  -17.4093  -16.3732  -23.0753 H   0  0  0  0  0  0  0  0  0  0  0  0
  -16.3175  -19.7712  -24.1386 H   0  0  0  0  0  0  0  0  0  0  0  0
  -15.9410  -22.1955  -24.4162 H   0  0  0  0  0  0  0  0  0  0  0  0
  -13.9281  -21.4767  -28.1293 H   0  0  0  0  0  0  0  0  0  0  0  0
  -14.2958  -19.0665  -27.8620 H   0  0  0  0  0  0  0  0  0  0  0  0
  -14.0469  -24.8217  -27.7009 H   0  0  0  0  0  0  0  0  0  0  0  0
  -15.4171  -25.4207  -26.2482 H   0  0  0  0  0  0  0  0  0  0  0  0
  -16.1032  -24.2012  -25.1220 H   0  0  0  0  0  0  0  0  0  0  0  0
  -16.5435  -24.1640  -26.8631 H   0  0  0  0  0  0  0  0  0  0  0  0
  -13.0537  -24.7449  -25.5872 H   0  0  0  0  0  0  0  0  0  0  0  0
  -12.5226  -23.0544  -25.8813 H   0  0  0  0  0  0  0  0  0  0  0  0
  -13.6032  -23.4282  -24.4960 H   0  0  0  0  0  0  0  0  0  0  0  0
  1  2  2  0  0  0  0
  1  3  1  0  0  0  0
  2  4  1  0  0  0  0
  2  5  1  0  0  0  0
  3  6  2  0  0  0  0
  4  7  2  0  0  0  0
  4  8  1  0  0  0  0
  5 11  2  0  0  0  0
  6  7  1  0  0  0  0
  6 20  1  0  0  0  0
  8  9  2  0  0  0  0
  8 10  1  0  0  0  0
  9 11  1  0  0  0  0
 11 12  1  0  0  0  0
 12 13  2  0  0  0  0
 12 17  1  0  0  0  0
 13 14  1  0  0  0  0
 14 15  2  0  0  0  0
 15 16  1  0  0  0  0
 15 18  1  0  0  0  0
 16 17  2  0  0  0  0
 18 19  1  0  0  0  0
 18 21  1  0  0  0  0
 18 22  1  0  0  0  0
  1 23  1  0  0  0  0
  3 24  1  0  0  0  0
  7 25  1  0  0  0  0
 10 26  1  0  0  0  0
 13 27  1  0  0  0  0
 14 28  1  0  0  0  0
 16 29  1  0  0  0  0
 17 30  1  0  0  0  0
 19 31  1  0  0  0  0
 21 32  1  0  0  0  0
 21 33  1  0  0  0  0
 21 34  1  0  0  0  0
 22 35  1  0  0  0  0
 22 36  1  0  0  0  0
 22 37  1  0  0  0  0
M  END
> <Name>
5e

> <IC50[nM]>
39

$$$$
5e
  -OEChem-05192314333D
 Structure written by MMmdl.
 37 39  0     1  0  0  0  0  0999 V2000
  -14.6145  -14.8753  -27.6783 C   0  0  0  0  0  0  0  0  0  0  0  0
  -15.1464  -15.6452  -26.6477 C   0  0  0  0  0  0  0  0  0  0  0  0
  -14.7773  -13.4982  -27.6334 C   0  0  0  0  0  0  0  0  0  0  0  0
  -15.8626  -15.0639  -25.5930 C   0  0  0  0  0  0  0  0  0  0  0  0
  -14.9335  -17.0116  -26.6934 N   0  0  0  0  0  0  0  0  0  0  0  0
  -15.4592  -12.9286  -26.5614 C   0  0  3  0  0  0  0  0  0  0  0  0
  -16.0212  -13.6877  -25.5413 C   0  0  0  0  0  0  0  0  0  0  0  0
  -16.4561  -15.9663  -24.5344 C   0  0  0  0  0  0  0  0  0  0  0  0
  -16.1772  -17.2727  -24.7852 N   0  0  0  0  0  0  0  0  0  0  0  0
  -17.1375  -15.6099  -23.5713 O   0  0  0  0  0  0  0  0  0  0  0  0
  -15.4463  -17.8122  -25.8274 C   0  0  0  0  0  0  0  0  0  0  0  0
  -15.3013  -19.2577  -25.9685 C   0  0  0  0  0  0  0  0  0  0  0  0
  -15.7883  -20.1437  -25.0032 C   0  0  0  0  0  0  0  0  0  0  0  0
  -15.5853  -21.5050  -25.1666 C   0  0  0  0  0  0  0  0  0  0  0  0
  -14.9212  -21.9889  -26.3002 C   0  0  0  0  0  0  0  0  0  0  0  0
  -14.4497  -21.1036  -27.2603 C   0  0  0  0  0  0  0  0  0  0  0  0
  -14.6471  -19.7514  -27.1044 C   0  0  0  0  0  0  0  0  0  0  0  0
  -14.5675  -23.4595  -26.4211 C   0  0  0  0  0  0  0  0  0  0  0  0
  -14.2543  -23.8948  -27.7188 O   0  0  0  0  0  0  0  0  0  0  0  0
  -15.5911  -11.2537  -26.4871 Cl  0  0  0  0  0  0  0  0  0  0  0  0
  -15.7371  -24.3734  -26.1449 C   0  0  0  0  0  0  0  0  0  0  0  0
  -13.3528  -23.6876  -25.5352 C   0  0  0  0  0  0  0  0  0  0  0  0
  -14.0855  -15.3408  -28.4967 H   0  0  0  0  0  0  0  0  0  0  0  0
  -14.3797  -12.8752  -28.4209 H   0  0  0  0  0  0  0  0  0  0  0  0
  -16.4015  -12.9817  -27.1265 H   0  0  0  0  0  0  0  0  0  0  0  0
  -16.5645  -13.2198  -24.7336 H   0  0  0  0  0  0  0  0  0  0  0  0
  -16.3175  -19.7712  -24.1386 H   0  0  0  0  0  0  0  0  0  0  0  0
  -15.9410  -22.1955  -24.4162 H   0  0  0  0  0  0  0  0  0  0  0  0
  -13.9281  -21.4767  -28.1293 H   0  0  0  0  0  0  0  0  0  0  0  0
  -14.2958  -19.0665  -27.8620 H   0  0  0  0  0  0  0  0  0  0  0  0
  -14.0469  -24.8217  -27.7009 H   0  0  0  0  0  0  0  0  0  0  0  0
  -15.4171  -25.4207  -26.2482 H   0  0  0  0  0  0  0  0  0  0  0  0
  -16.1032  -24.2012  -25.1220 H   0  0  0  0  0  0  0  0  0  0  0  0
  -16.5435  -24.1640  -26.8631 H   0  0  0  0  0  0  0  0  0  0  0  0
  -13.0537  -24.7449  -25.5872 H   0  0  0  0  0  0  0  0  0  0  0  0
  -12.5226  -23.0544  -25.8813 H   0  0  0  0  0  0  0  0  0  0  0  0
  -13.6032  -23.4282  -24.4960 H   0  0  0  0  0  0  0  0  0  0  0  0
  1  2  1  0  0  0  0
  1  3  2  0  0  0  0
  2  4  1  0  0  0  0
  2  5  2  0  0  0  0
  3  6  1  0  0  0  0
  4  7  2  0  0  0  0
  4  8  1  0  0  0  0
  5 11  1  0  0  0  0
  6  7  1  0  0  0  0
  6 20  1  0  0  0  0
  8  9  1  0  0  0  0
  8 10  2  0  0  0  0
  9 11  2  0  0  0  0
 11 12  1  0  0  0  0
 12 13  2  0  0  0  0
 12 17  1  0  0  0  0
 13 14  1  0  0  0  0
 14 15  2  0  0  0  0
 15 16  1  0  0  0  0
 15 18  1  0  0  0  0
 16 17  2  0  0  0  0
 18 19  1  0  0  0  0
 18 21  1  0  0  0  0
 18 22  1  0  0  0  0
  1 23  1  0  0  0  0
  3 24  1  0  0  0  0
  6 25  1  0  0  0  0
  7 26  1  0  0  0  0
 13 27  1  0  0  0  0
 14 28  1  0  0  0  0
 16 29  1  0  0  0  0
 17 30  1  0  0  0  0
 19 31  1  0  0  0  0
 21 32  1  0  0  0  0
 21 33  1  0  0  0  0
 21 34  1  0  0  0  0
 22 35  1  0  0  0  0
 22 36  1  0  0  0  0
 22 37  1  0  0  0  0
M  END
> <Name>
5e

> <IC50[nM]>
39

$$$$
5e
  -OEChem-05192314333D
 Structure written by MMmdl.
 37 39  0     1  0  0  0  0  0999 V2000
  -14.6145  -14.8753  -27.6783 C   0  0  0  0  0  0  0  0  0  0  0  0
  -15.1464  -15.6452  -26.6477 C   0  0  0  0  0  0  0  0  0  0  0  0
  -14.7773  -13.4982  -27.6334 C   0  0  0  0  0  0  0  0  0  0  0  0
  -15.8626  -15.0639  -25.5930 C   0  0  3  0  0  0  0  0  0  0  0  0
  -14.9335  -17.0116  -26.6934 N   0  0  0  0  0  0  0  0  0  0  0  0
  -15.4592  -12.9286  -26.5614 C   0  0  0  0  0  0  0  0  0  0  0  0
  -16.0212  -13.6877  -25.5413 C   0  0  0  0  0  0  0  0  0  0  0  0
  -16.4561  -15.9663  -24.5344 C   0  0  0  0  0  0  0  0  0  0  0  0
  -16.1772  -17.2727  -24.7852 N   0  0  0  0  0  0  0  0  0  0  0  0
  -17.1375  -15.6099  -23.5713 O   0  0  0  0  0  0  0  0  0  0  0  0
  -15.4463  -17.8122  -25.8274 C   0  0  0  0  0  0  0  0  0  0  0  0
  -15.3013  -19.2577  -25.9685 C   0  0  0  0  0  0  0  0  0  0  0  0
  -15.7883  -20.1437  -25.0032 C   0  0  0  0  0  0  0  0  0  0  0  0
  -15.5853  -21.5050  -25.1666 C   0  0  0  0  0  0  0  0  0  0  0  0
  -14.9212  -21.9889  -26.3002 C   0  0  0  0  0  0  0  0  0  0  0  0
  -14.4497  -21.1036  -27.2603 C   0  0  0  0  0  0  0  0  0  0  0  0
  -14.6471  -19.7514  -27.1044 C   0  0  0  0  0  0  0  0  0  0  0  0
  -14.5675  -23.4595  -26.4211 C   0  0  0  0  0  0  0  0  0  0  0  0
  -14.2543  -23.8948  -27.7188 O   0  0  0  0  0  0  0  0  0  0  0  0
  -15.5911  -11.2537  -26.4871 Cl  0  0  0  0  0  0  0  0  0  0  0  0
  -15.7371  -24.3734  -26.1449 C   0  0  0  0  0  0  0  0  0  0  0  0
  -13.3528  -23.6876  -25.5352 C   0  0  0  0  0  0  0  0  0  0  0  0
  -14.0855  -15.3408  -28.4967 H   0  0  0  0  0  0  0  0  0  0  0  0
  -14.3797  -12.8752  -28.4209 H   0  0  0  0  0  0  0  0  0  0  0  0
  -14.9359  -14.9814  -25.0061 H   0  0  0  0  0  0  0  0  0  0  0  0
  -16.5645  -13.2198  -24.7336 H   0  0  0  0  0  0  0  0  0  0  0  0
  -16.3175  -19.7712  -24.1386 H   0  0  0  0  0  0  0  0  0  0  0  0
  -15.9410  -22.1955  -24.4162 H   0  0  0  0  0  0  0  0  0  0  0  0
  -13.9281  -21.4767  -28.1293 H   0  0  0  0  0  0  0  0  0  0  0  0
  -14.2958  -19.0665  -27.8620 H   0  0  0  0  0  0  0  0  0  0  0  0
  -14.0469  -24.8217  -27.7009 H   0  0  0  0  0  0  0  0  0  0  0  0
  -15.4171  -25.4207  -26.2482 H   0  0  0  0  0  0  0  0  0  0  0  0
  -16.1032  -24.2012  -25.1220 H   0  0  0  0  0  0  0  0  0  0  0  0
  -16.5435  -24.1640  -26.8631 H   0  0  0  0  0  0  0  0  0  0  0  0
  -13.0537  -24.7449  -25.5872 H   0  0  0  0  0  0  0  0  0  0  0  0
  -12.5226  -23.0544  -25.8813 H   0  0  0  0  0  0  0  0  0  0  0  0
  -13.6032  -23.4282  -24.4960 H   0  0  0  0  0  0  0  0  0  0  0  0
  1  2  1  0  0  0  0
  1  3  2  0  0  0  0
  2  4  1  0  0  0  0
  2  5  2  0  0  0  0
  3  6  1  0  0  0  0
  4  7  1  0  0  0  0
  4  8  1  0  0  0  0
  5 11  1  0  0  0  0
  6  7  2  0  0  0  0
  6 20  1  0  0  0  0
  8  9  1  0  0  0  0
  8 10  2  0  0  0  0
  9 11  2  0  0  0  0
 11 12  1  0  0  0  0
 12 13  2  0  0  0  0
 12 17  1  0  0  0  0
 13 14  1  0  0  0  0
 14 15  2  0  0  0  0
 15 16  1  0  0  0  0
 15 18  1  0  0  0  0
 16 17  2  0  0  0  0
 18 19  1  0  0  0  0
 18 21  1  0  0  0  0
 18 22  1  0  0  0  0
  1 23  1  0  0  0  0
  3 24  1  0  0  0  0
  4 25  1  0  0  0  0
  7 26  1  0  0  0  0
 13 27  1  0  0  0  0
 14 28  1  0  0  0  0
 16 29  1  0  0  0  0
 17 30  1  0  0  0  0
 19 31  1  0  0  0  0
 21 32  1  0  0  0  0
 21 33  1  0  0  0  0
 21 34  1  0  0  0  0
 22 35  1  0  0  0  0
 22 36  1  0  0  0  0
 22 37  1  0  0  0  0
M  END
> <Name>
5e

> <IC50[nM]>
39

$$$$
5e
  -OEChem-05192314333D
 Structure written by MMmdl.
 37 39  0     0  0  0  0  0  0999 V2000
  -14.6145  -14.8753  -27.6783 C   0  0  0  0  0  0  0  0  0  0  0  0
  -15.1464  -15.6452  -26.6477 C   0  0  0  0  0  0  0  0  0  0  0  0
  -14.7773  -13.4982  -27.6334 C   0  0  0  0  0  0  0  0  0  0  0  0
  -15.8626  -15.0639  -25.5930 C   0  0  0  0  0  0  0  0  0  0  0  0
  -14.9335  -17.0116  -26.6934 N   0  0  0  0  0  0  0  0  0  0  0  0
  -15.4592  -12.9286  -26.5614 C   0  0  0  0  0  0  0  0  0  0  0  0
  -16.0212  -13.6877  -25.5413 C   0  0  0  0  0  0  0  0  0  0  0  0
  -16.4561  -15.9663  -24.5344 C   0  0  0  0  0  0  0  0  0  0  0  0
  -16.1772  -17.2727  -24.7852 N   0  0  0  0  0  0  0  0  0  0  0  0
  -17.1375  -15.6099  -23.5713 O   0  0  0  0  0  0  0  0  0  0  0  0
  -15.4463  -17.8122  -25.8274 C   0  0  0  0  0  0  0  0  0  0  0  0
  -15.3013  -19.2577  -25.9685 C   0  0  0  0  0  0  0  0  0  0  0  0
  -15.7883  -20.1437  -25.0032 C   0  0  0  0  0  0  0  0  0  0  0  0
  -15.5853  -21.5050  -25.1666 C   0  0  0  0  0  0  0  0  0  0  0  0
  -14.9212  -21.9889  -26.3002 C   0  0  0  0  0  0  0  0  0  0  0  0
  -14.4497  -21.1036  -27.2603 C   0  0  0  0  0  0  0  0  0  0  0  0
  -14.6471  -19.7514  -27.1044 C   0  0  0  0  0  0  0  0  0  0  0  0
  -14.5675  -23.4595  -26.4211 C   0  0  0  0  0  0  0  0  0  0  0  0
  -14.2543  -23.8948  -27.7188 O   0  0  0  0  0  0  0  0  0  0  0  0
  -15.5911  -11.2537  -26.4871 Cl  0  0  0  0  0  0  0  0  0  0  0  0
  -15.7371  -24.3734  -26.1449 C   0  0  0  0  0  0  0  0  0  0  0  0
  -13.3528  -23.6876  -25.5352 C   0  0  0  0  0  0  0  0  0  0  0  0
  -13.5327  -15.0728  -27.7048 H   0  0  0  0  0  0  0  0  0  0  0  0
  -15.0742  -15.2253  -28.6144 H   0  0  0  0  0  0  0  0  0  0  0  0
  -14.3797  -12.8752  -28.4209 H   0  0  0  0  0  0  0  0  0  0  0  0
  -16.5645  -13.2198  -24.7336 H   0  0  0  0  0  0  0  0  0  0  0  0
  -16.3175  -19.7712  -24.1386 H   0  0  0  0  0  0  0  0  0  0  0  0
  -15.9410  -22.1955  -24.4162 H   0  0  0  0  0  0  0  0  0  0  0  0
  -13.9281  -21.4767  -28.1293 H   0  0  0  0  0  0  0  0  0  0  0  0
  -14.2958  -19.0665  -27.8620 H   0  0  0  0  0  0  0  0  0  0  0  0
  -14.0469  -24.8217  -27.7009 H   0  0  0  0  0  0  0  0  0  0  0  0
  -15.4171  -25.4207  -26.2482 H   0  0  0  0  0  0  0  0  0  0  0  0
  -16.1032  -24.2012  -25.1220 H   0  0  0  0  0  0  0  0  0  0  0  0
  -16.5435  -24.1640  -26.8631 H   0  0  0  0  0  0  0  0  0  0  0  0
  -13.0537  -24.7449  -25.5872 H   0  0  0  0  0  0  0  0  0  0  0  0
  -12.5226  -23.0544  -25.8813 H   0  0  0  0  0  0  0  0  0  0  0  0
  -13.6032  -23.4282  -24.4960 H   0  0  0  0  0  0  0  0  0  0  0  0
  1  2  1  0  0  0  0
  1  3  1  0  0  0  0
  2  4  1  0  0  0  0
  2  5  2  0  0  0  0
  3  6  2  0  0  0  0
  4  7  2  0  0  0  0
  4  8  1  0  0  0  0
  5 11  1  0  0  0  0
  6  7  1  0  0  0  0
  6 20  1  0  0  0  0
  8  9  1  0  0  0  0
  8 10  2  0  0  0  0
  9 11  2  0  0  0  0
 11 12  1  0  0  0  0
 12 13  2  0  0  0  0
 12 17  1  0  0  0  0
 13 14  1  0  0  0  0
 14 15  2  0  0  0  0
 15 16  1  0  0  0  0
 15 18  1  0  0  0  0
 16 17  2  0  0  0  0
 18 19  1  0  0  0  0
 18 21  1  0  0  0  0
 18 22  1  0  0  0  0
  1 23  1  0  0  0  0
  1 24  1  0  0  0  0
  3 25  1  0  0  0  0
  7 26  1  0  0  0  0
 13 27  1  0  0  0  0
 14 28  1  0  0  0  0
 16 29  1  0  0  0  0
 17 30  1  0  0  0  0
 19 31  1  0  0  0  0
 21 32  1  0  0  0  0
 21 33  1  0  0  0  0
 21 34  1  0  0  0  0
 22 35  1  0  0  0  0
 22 36  1  0  0  0  0
 22 37  1  0  0  0  0
M  END
> <Name>
5e

> <IC50[nM]>
39

$$$$
