5f
  -OEChem-05192314333D
 Structure written by MMmdl.
 37 39  0     0  0  0  0  0  0999 V2000
  -14.5642  -14.6384  -27.5273 C   0  0  0  0  0  0  0  0  0  0  0  0
  -15.1482  -15.5111  -26.6015 C   0  0  0  0  0  0  0  0  0  0  0  0
  -14.6521  -13.2595  -27.3238 C   0  0  0  0  0  0  0  0  0  0  0  0
  -15.8827  -14.9938  -25.5273 C   0  0  0  0  0  0  0  0  0  0  0  0
  -14.9607  -16.8981  -26.7338 N   0  0  0  0  0  0  0  0  0  0  0  0
  -15.3427  -12.7540  -26.2229 C   0  0  0  0  0  0  0  0  0  0  0  0
  -15.9780  -13.6190  -25.3283 C   0  0  0  0  0  0  0  0  0  0  0  0
  -16.5556  -15.9641  -24.5881 C   0  0  0  0  0  0  0  0  0  0  0  0
  -16.1974  -17.2475  -24.8411 N   0  0  0  0  0  0  0  0  0  0  0  0
  -17.3643  -15.6757  -23.7122 O   0  0  0  0  0  0  0  0  0  0  0  0
  -15.4538  -17.7454  -25.8883 C   0  0  0  0  0  0  0  0  0  0  0  0
  -15.2992  -19.2055  -26.0279 C   0  0  0  0  0  0  0  0  0  0  0  0
  -15.8269  -20.1007  -25.0850 C   0  0  0  0  0  0  0  0  0  0  0  0
  -15.6451  -21.4700  -25.2387 C   0  0  0  0  0  0  0  0  0  0  0  0
  -14.9295  -21.9653  -26.3318 C   0  0  0  0  0  0  0  0  0  0  0  0
  -14.4231  -21.0764  -27.2810 C   0  0  0  0  0  0  0  0  0  0  0  0
  -14.6078  -19.7133  -27.1328 C   0  0  0  0  0  0  0  0  0  0  0  0
  -14.5764  -23.4515  -26.4059 C   0  0  0  0  0  0  0  0  0  0  0  0
  -14.2382  -23.8893  -27.6950 O   0  0  0  0  0  0  0  0  0  0  0  0
  -15.7378  -24.3889  -26.0561 C   0  0  0  0  0  0  0  0  0  0  0  0
  -13.3308  -23.6575  -25.5430 C   0  0  0  0  0  0  0  0  0  0  0  0
  -13.8633  -15.1104  -28.5859 F   0  0  0  0  0  0  0  0  0  0  0  0
  -14.1833  -12.5819  -28.0220 H   0  0  0  0  0  0  0  0  0  0  0  0
  -15.3868  -11.6872  -26.0607 H   0  0  0  0  0  0  0  0  0  0  0  0
  -16.5367  -13.2257  -24.4919 H   0  0  0  0  0  0  0  0  0  0  0  0
  -16.5164  -17.9241  -24.1774 H   0  0  0  0  0  0  0  0  0  0  0  0
  -16.3771  -19.7238  -24.2355 H   0  0  0  0  0  0  0  0  0  0  0  0
  -16.0581  -22.1531  -24.5112 H   0  0  0  0  0  0  0  0  0  0  0  0
  -13.8836  -21.4549  -28.1366 H   0  0  0  0  0  0  0  0  0  0  0  0
  -14.2149  -19.0357  -27.8763 H   0  0  0  0  0  0  0  0  0  0  0  0
  -14.0310  -24.8161  -27.6710 H   0  0  0  0  0  0  0  0  0  0  0  0
  -15.4024  -25.4337  -26.1332 H   0  0  0  0  0  0  0  0  0  0  0  0
  -16.0751  -24.1871  -25.0287 H   0  0  0  0  0  0  0  0  0  0  0  0
  -16.5697  -24.2185  -26.7553 H   0  0  0  0  0  0  0  0  0  0  0  0
  -13.0389  -24.7178  -25.5667 H   0  0  0  0  0  0  0  0  0  0  0  0
  -12.5076  -23.0419  -25.9347 H   0  0  0  0  0  0  0  0  0  0  0  0
  -13.5496  -23.3607  -24.5067 H   0  0  0  0  0  0  0  0  0  0  0  0
  1  2  2  0  0  0  0
  1  3  1  0  0  0  0
  1 22  1  0  0  0  0
  2  4  1  0  0  0  0
  2  5  1  0  0  0  0
  3  6  2  0  0  0  0
  4  7  2  0  0  0  0
  4  8  1  0  0  0  0
  5 11  2  0  0  0  0
  6  7  1  0  0  0  0
  8  9  1  0  0  0  0
  8 10  2  0  0  0  0
  9 11  1  0  0  0  0
 11 12  1  0  0  0  0
 12 13  2  0  0  0  0
 12 17  1  0  0  0  0
 13 14  1  0  0  0  0
 14 15  2  0  0  0  0
 15 16  1  0  0  0  0
 15 18  1  0  0  0  0
 16 17  2  0  0  0  0
 18 19  1  0  0  0  0
 18 20  1  0  0  0  0
 18 21  1  0  0  0  0
  3 23  1  0  0  0  0
  6 24  1  0  0  0  0
  7 25  1  0  0  0  0
  9 26  1  0  0  0  0
 13 27  1  0  0  0  0
 14 28  1  0  0  0  0
 16 29  1  0  0  0  0
 17 30  1  0  0  0  0
 19 31  1  0  0  0  0
 20 32  1  0  0  0  0
 20 33  1  0  0  0  0
 20 34  1  0  0  0  0
 21 35  1  0  0  0  0
 21 36  1  0  0  0  0
 21 37  1  0  0  0  0
M  END
> <Name>
5f

> <IC50[nM]>
30

$$$$
5f
  -OEChem-05192314333D
 Structure written by MMmdl.
 37 39  0     0  0  0  0  0  0999 V2000
  -14.5642  -14.6384  -27.5273 C   0  0  0  0  0  0  0  0  0  0  0  0
  -15.1482  -15.5111  -26.6015 C   0  0  0  0  0  0  0  0  0  0  0  0
  -14.6521  -13.2595  -27.3238 C   0  0  0  0  0  0  0  0  0  0  0  0
  -15.8827  -14.9938  -25.5273 C   0  0  0  0  0  0  0  0  0  0  0  0
  -14.9607  -16.8981  -26.7338 N   0  0  0  0  0  0  0  0  0  0  0  0
  -15.3427  -12.7540  -26.2229 C   0  0  0  0  0  0  0  0  0  0  0  0
  -15.9780  -13.6190  -25.3283 C   0  0  0  0  0  0  0  0  0  0  0  0
  -16.5556  -15.9641  -24.5881 C   0  0  0  0  0  0  0  0  0  0  0  0
  -16.1974  -17.2475  -24.8411 N   0  0  0  0  0  0  0  0  0  0  0  0
  -17.3643  -15.6757  -23.7122 O   0  0  0  0  0  0  0  0  0  0  0  0
  -15.4538  -17.7454  -25.8883 C   0  0  0  0  0  0  0  0  0  0  0  0
  -15.2992  -19.2055  -26.0279 C   0  0  0  0  0  0  0  0  0  0  0  0
  -15.8269  -20.1007  -25.0850 C   0  0  0  0  0  0  0  0  0  0  0  0
  -15.6451  -21.4700  -25.2387 C   0  0  0  0  0  0  0  0  0  0  0  0
  -14.9295  -21.9653  -26.3318 C   0  0  0  0  0  0  0  0  0  0  0  0
  -14.4231  -21.0764  -27.2810 C   0  0  0  0  0  0  0  0  0  0  0  0
  -14.6078  -19.7133  -27.1328 C   0  0  0  0  0  0  0  0  0  0  0  0
  -14.5764  -23.4515  -26.4059 C   0  0  0  0  0  0  0  0  0  0  0  0
  -14.2382  -23.8893  -27.6950 O   0  0  0  0  0  0  0  0  0  0  0  0
  -15.7378  -24.3889  -26.0561 C   0  0  0  0  0  0  0  0  0  0  0  0
  -13.3308  -23.6575  -25.5430 C   0  0  0  0  0  0  0  0  0  0  0  0
  -13.8633  -15.1104  -28.5859 F   0  0  0  0  0  0  0  0  0  0  0  0
  -14.1833  -12.5819  -28.0220 H   0  0  0  0  0  0  0  0  0  0  0  0
  -14.4283  -17.2419  -27.5073 H   0  0  0  0  0  0  0  0  0  0  0  0
  -15.3868  -11.6872  -26.0607 H   0  0  0  0  0  0  0  0  0  0  0  0
  -16.5367  -13.2257  -24.4919 H   0  0  0  0  0  0  0  0  0  0  0  0
  -16.3771  -19.7238  -24.2355 H   0  0  0  0  0  0  0  0  0  0  0  0
  -16.0581  -22.1531  -24.5112 H   0  0  0  0  0  0  0  0  0  0  0  0
  -13.8836  -21.4549  -28.1366 H   0  0  0  0  0  0  0  0  0  0  0  0
  -14.2149  -19.0357  -27.8763 H   0  0  0  0  0  0  0  0  0  0  0  0
  -14.0310  -24.8161  -27.6710 H   0  0  0  0  0  0  0  0  0  0  0  0
  -15.4024  -25.4337  -26.1332 H   0  0  0  0  0  0  0  0  0  0  0  0
  -16.0751  -24.1871  -25.0287 H   0  0  0  0  0  0  0  0  0  0  0  0
  -16.5697  -24.2185  -26.7553 H   0  0  0  0  0  0  0  0  0  0  0  0
  -13.0389  -24.7178  -25.5667 H   0  0  0  0  0  0  0  0  0  0  0  0
  -12.5076  -23.0419  -25.9347 H   0  0  0  0  0  0  0  0  0  0  0  0
  -13.5496  -23.3607  -24.5067 H   0  0  0  0  0  0  0  0  0  0  0  0
  1  2  2  0  0  0  0
  1  3  1  0  0  0  0
  1 22  1  0  0  0  0
  2  4  1  0  0  0  0
  2  5  1  0  0  0  0
  3  6  2  0  0  0  0
  4  7  2  0  0  0  0
  4  8  1  0  0  0  0
  5 11  1  0  0  0  0
  6  7  1  0  0  0  0
  8  9  1  0  0  0  0
  8 10  2  0  0  0  0
  9 11  2  0  0  0  0
 11 12  1  0  0  0  0
 12 13  2  0  0  0  0
 12 17  1  0  0  0  0
 13 14  1  0  0  0  0
 14 15  2  0  0  0  0
 15 16  1  0  0  0  0
 15 18  1  0  0  0  0
 16 17  2  0  0  0  0
 18 19  1  0  0  0  0
 18 20  1  0  0  0  0
 18 21  1  0  0  0  0
  3 23  1  0  0  0  0
  5 24  1  0  0  0  0
  6 25  1  0  0  0  0
  7 26  1  0  0  0  0
 13 27  1  0  0  0  0
 14 28  1  0  0  0  0
 16 29  1  0  0  0  0
 17 30  1  0  0  0  0
 19 31  1  0  0  0  0
 20 32  1  0  0  0  0
 20 33  1  0  0  0  0
 20 34  1  0  0  0  0
 21 35  1  0  0  0  0
 21 36  1  0  0  0  0
 21 37  1  0  0  0  0
M  END
> <Name>
5f

> <IC50[nM]>
30

$$$$
5f
  -OEChem-05192314333D
 Structure written by MMmdl.
 37 39  0     0  0  0  0  0  0999 V2000
  -14.5642  -14.6384  -27.5273 C   0  0  0  0  0  0  0  0  0  0  0  0
  -15.1482  -15.5111  -26.6015 C   0  0  0  0  0  0  0  0  0  0  0  0
  -14.6521  -13.2595  -27.3238 C   0  0  0  0  0  0  0  0  0  0  0  0
  -15.8827  -14.9938  -25.5273 C   0  0  0  0  0  0  0  0  0  0  0  0
  -14.9607  -16.8981  -26.7338 N   0  0  0  0  0  0  0  0  0  0  0  0
  -15.3427  -12.7540  -26.2229 C   0  0  0  0  0  0  0  0  0  0  0  0
  -15.9780  -13.6190  -25.3283 C   0  0  0  0  0  0  0  0  0  0  0  0
  -16.5556  -15.9641  -24.5881 C   0  0  0  0  0  0  0  0  0  0  0  0
  -16.1974  -17.2475  -24.8411 N   0  0  0  0  0  0  0  0  0  0  0  0
  -17.3643  -15.6757  -23.7122 O   0  0  0  0  0  0  0  0  0  0  0  0
  -15.4538  -17.7454  -25.8883 C   0  0  0  0  0  0  0  0  0  0  0  0
  -15.2992  -19.2055  -26.0279 C   0  0  0  0  0  0  0  0  0  0  0  0
  -15.8269  -20.1007  -25.0850 C   0  0  0  0  0  0  0  0  0  0  0  0
  -15.6451  -21.4700  -25.2387 C   0  0  0  0  0  0  0  0  0  0  0  0
  -14.9295  -21.9653  -26.3318 C   0  0  0  0  0  0  0  0  0  0  0  0
  -14.4231  -21.0764  -27.2810 C   0  0  0  0  0  0  0  0  0  0  0  0
  -14.6078  -19.7133  -27.1328 C   0  0  0  0  0  0  0  0  0  0  0  0
  -14.5764  -23.4515  -26.4059 C   0  0  0  0  0  0  0  0  0  0  0  0
  -14.2382  -23.8893  -27.6950 O   0  0  0  0  0  0  0  0  0  0  0  0
  -15.7378  -24.3889  -26.0561 C   0  0  0  0  0  0  0  0  0  0  0  0
  -13.3308  -23.6575  -25.5430 C   0  0  0  0  0  0  0  0  0  0  0  0
  -13.8633  -15.1104  -28.5859 F   0  0  0  0  0  0  0  0  0  0  0  0
  -14.1833  -12.5819  -28.0220 H   0  0  0  0  0  0  0  0  0  0  0  0
  -15.3868  -11.6872  -26.0607 H   0  0  0  0  0  0  0  0  0  0  0  0
  -16.5367  -13.2257  -24.4919 H   0  0  0  0  0  0  0  0  0  0  0  0
  -17.6634  -16.4688  -23.2832 H   0  0  0  0  0  0  0  0  0  0  0  0
  -16.3771  -19.7238  -24.2355 H   0  0  0  0  0  0  0  0  0  0  0  0
  -16.0581  -22.1531  -24.5112 H   0  0  0  0  0  0  0  0  0  0  0  0
  -13.8836  -21.4549  -28.1366 H   0  0  0  0  0  0  0  0  0  0  0  0
  -14.2149  -19.0357  -27.8763 H   0  0  0  0  0  0  0  0  0  0  0  0
  -14.0310  -24.8161  -27.6710 H   0  0  0  0  0  0  0  0  0  0  0  0
  -15.4024  -25.4337  -26.1332 H   0  0  0  0  0  0  0  0  0  0  0  0
  -16.0751  -24.1871  -25.0287 H   0  0  0  0  0  0  0  0  0  0  0  0
  -16.5697  -24.2185  -26.7553 H   0  0  0  0  0  0  0  0  0  0  0  0
  -13.0389  -24.7178  -25.5667 H   0  0  0  0  0  0  0  0  0  0  0  0
  -12.5076  -23.0419  -25.9347 H   0  0  0  0  0  0  0  0  0  0  0  0
  -13.5496  -23.3607  -24.5067 H   0  0  0  0  0  0  0  0  0  0  0  0
  1  2  2  0  0  0  0
  1  3  1  0  0  0  0
  1 22  1  0  0  0  0
  2  4  1  0  0  0  0
  2  5  1  0  0  0  0
  3  6  2  0  0  0  0
  4  7  2  0  0  0  0
  4  8  1  0  0  0  0
  5 11  2  0  0  0  0
  6  7  1  0  0  0  0
  8  9  2  0  0  0  0
  8 10  1  0  0  0  0
  9 11  1  0  0  0  0
 11 12  1  0  0  0  0
 12 13  2  0  0  0  0
 12 17  1  0  0  0  0
 13 14  1  0  0  0  0
 14 15  2  0  0  0  0
 15 16  1  0  0  0  0
 15 18  1  0  0  0  0
 16 17  2  0  0  0  0
 18 19  1  0  0  0  0
 18 20  1  0  0  0  0
 18 21  1  0  0  0  0
  3 23  1  0  0  0  0
  6 24  1  0  0  0  0
  7 25  1  0  0  0  0
 10 26  1  0  0  0  0
 13 27  1  0  0  0  0
 14 28  1  0  0  0  0
 16 29  1  0  0  0  0
 17 30  1  0  0  0  0
 19 31  1  0  0  0  0
 20 32  1  0  0  0  0
 20 33  1  0  0  0  0
 20 34  1  0  0  0  0
 21 35  1  0  0  0  0
 21 36  1  0  0  0  0
 21 37  1  0  0  0  0
M  END
> <Name>
5f

> <IC50[nM]>
30

$$$$
5f
  -OEChem-05192314333D
 Structure written by MMmdl.
 37 39  0     1  0  0  0  0  0999 V2000
  -14.5642  -14.6384  -27.5273 C   0  0  3  0  0  0  0  0  0  0  0  0
  -15.1482  -15.5111  -26.6015 C   0  0  0  0  0  0  0  0  0  0  0  0
  -14.6521  -13.2595  -27.3238 C   0  0  0  0  0  0  0  0  0  0  0  0
  -15.8827  -14.9938  -25.5273 C   0  0  0  0  0  0  0  0  0  0  0  0
  -14.9607  -16.8981  -26.7338 N   0  0  0  0  0  0  0  0  0  0  0  0
  -15.3427  -12.7540  -26.2229 C   0  0  0  0  0  0  0  0  0  0  0  0
  -15.9780  -13.6190  -25.3283 C   0  0  0  0  0  0  0  0  0  0  0  0
  -16.5556  -15.9641  -24.5881 C   0  0  0  0  0  0  0  0  0  0  0  0
  -16.1974  -17.2475  -24.8411 N   0  0  0  0  0  0  0  0  0  0  0  0
  -17.3643  -15.6757  -23.7122 O   0  0  0  0  0  0  0  0  0  0  0  0
  -15.4538  -17.7454  -25.8883 C   0  0  0  0  0  0  0  0  0  0  0  0
  -15.2992  -19.2055  -26.0279 C   0  0  0  0  0  0  0  0  0  0  0  0
  -15.8269  -20.1007  -25.0850 C   0  0  0  0  0  0  0  0  0  0  0  0
  -15.6451  -21.4700  -25.2387 C   0  0  0  0  0  0  0  0  0  0  0  0
  -14.9295  -21.9653  -26.3318 C   0  0  0  0  0  0  0  0  0  0  0  0
  -14.4231  -21.0764  -27.2810 C   0  0  0  0  0  0  0  0  0  0  0  0
  -14.6078  -19.7133  -27.1328 C   0  0  0  0  0  0  0  0  0  0  0  0
  -14.5764  -23.4515  -26.4059 C   0  0  0  0  0  0  0  0  0  0  0  0
  -14.2382  -23.8893  -27.6950 O   0  0  0  0  0  0  0  0  0  0  0  0
  -15.7378  -24.3889  -26.0561 C   0  0  0  0  0  0  0  0  0  0  0  0
  -13.3308  -23.6575  -25.5430 C   0  0  0  0  0  0  0  0  0  0  0  0
  -13.8633  -15.1104  -28.5859 F   0  0  0  0  0  0  0  0  0  0  0  0
  -15.4886  -14.6259  -28.1234 H   0  0  0  0  0  0  0  0  0  0  0  0
  -14.1833  -12.5819  -28.0220 H   0  0  0  0  0  0  0  0  0  0  0  0
  -15.3868  -11.6872  -26.0607 H   0  0  0  0  0  0  0  0  0  0  0  0
  -16.5367  -13.2257  -24.4919 H   0  0  0  0  0  0  0  0  0  0  0  0
  -16.3771  -19.7238  -24.2355 H   0  0  0  0  0  0  0  0  0  0  0  0
  -16.0581  -22.1531  -24.5112 H   0  0  0  0  0  0  0  0  0  0  0  0
  -13.8836  -21.4549  -28.1366 H   0  0  0  0  0  0  0  0  0  0  0  0
  -14.2149  -19.0357  -27.8763 H   0  0  0  0  0  0  0  0  0  0  0  0
  -14.0310  -24.8161  -27.6710 H   0  0  0  0  0  0  0  0  0  0  0  0
  -15.4024  -25.4337  -26.1332 H   0  0  0  0  0  0  0  0  0  0  0  0
  -16.0751  -24.1871  -25.0287 H   0  0  0  0  0  0  0  0  0  0  0  0
  -16.5697  -24.2185  -26.7553 H   0  0  0  0  0  0  0  0  0  0  0  0
  -13.0389  -24.7178  -25.5667 H   0  0  0  0  0  0  0  0  0  0  0  0
  -12.5076  -23.0419  -25.9347 H   0  0  0  0  0  0  0  0  0  0  0  0
  -13.5496  -23.3607  -24.5067 H   0  0  0  0  0  0  0  0  0  0  0  0
  1  2  1  0  0  0  0
  1  3  1  0  0  0  0
  1 22  1  0  0  0  0
  2  4  1  0  0  0  0
  2  5  2  0  0  0  0
  3  6  2  0  0  0  0
  4  7  2  0  0  0  0
  4  8  1  0  0  0  0
  5 11  1  0  0  0  0
  6  7  1  0  0  0  0
  8  9  1  0  0  0  0
  8 10  2  0  0  0  0
  9 11  2  0  0  0  0
 11 12  1  0  0  0  0
 12 13  2  0  0  0  0
 12 17  1  0  0  0  0
 13 14  1  0  0  0  0
 14 15  2  0  0  0  0
 15 16  1  0  0  0  0
 15 18  1  0  0  0  0
 16 17  2  0  0  0  0
 18 19  1  0  0  0  0
 18 20  1  0  0  0  0
 18 21  1  0  0  0  0
  1 23  1  0  0  0  0
  3 24  1  0  0  0  0
  6 25  1  0  0  0  0
  7 26  1  0  0  0  0
 13 27  1  0  0  0  0
 14 28  1  0  0  0  0
 16 29  1  0  0  0  0
 17 30  1  0  0  0  0
 19 31  1  0  0  0  0
 20 32  1  0  0  0  0
 20 33  1  0  0  0  0
 20 34  1  0  0  0  0
 21 35  1  0  0  0  0
 21 36  1  0  0  0  0
 21 37  1  0  0  0  0
M  END
> <Name>
5f

> <IC50[nM]>
30

$$$$
5f
  -OEChem-05192314333D
 Structure written by MMmdl.
 37 39  0     1  0  0  0  0  0999 V2000
  -14.5642  -14.6384  -27.5273 C   0  0  0  0  0  0  0  0  0  0  0  0
  -15.1482  -15.5111  -26.6015 C   0  0  0  0  0  0  0  0  0  0  0  0
  -14.6521  -13.2595  -27.3238 C   0  0  0  0  0  0  0  0  0  0  0  0
  -15.8827  -14.9938  -25.5273 C   0  0  3  0  0  0  0  0  0  0  0  0
  -14.9607  -16.8981  -26.7338 N   0  0  0  0  0  0  0  0  0  0  0  0
  -15.3427  -12.7540  -26.2229 C   0  0  0  0  0  0  0  0  0  0  0  0
  -15.9780  -13.6190  -25.3283 C   0  0  0  0  0  0  0  0  0  0  0  0
  -16.5556  -15.9641  -24.5881 C   0  0  0  0  0  0  0  0  0  0  0  0
  -16.1974  -17.2475  -24.8411 N   0  0  0  0  0  0  0  0  0  0  0  0
  -17.3643  -15.6757  -23.7122 O   0  0  0  0  0  0  0  0  0  0  0  0
  -15.4538  -17.7454  -25.8883 C   0  0  0  0  0  0  0  0  0  0  0  0
  -15.2992  -19.2055  -26.0279 C   0  0  0  0  0  0  0  0  0  0  0  0
  -15.8269  -20.1007  -25.0850 C   0  0  0  0  0  0  0  0  0  0  0  0
  -15.6451  -21.4700  -25.2387 C   0  0  0  0  0  0  0  0  0  0  0  0
  -14.9295  -21.9653  -26.3318 C   0  0  0  0  0  0  0  0  0  0  0  0
  -14.4231  -21.0764  -27.2810 C   0  0  0  0  0  0  0  0  0  0  0  0
  -14.6078  -19.7133  -27.1328 C   0  0  0  0  0  0  0  0  0  0  0  0
  -14.5764  -23.4515  -26.4059 C   0  0  0  0  0  0  0  0  0  0  0  0
  -14.2382  -23.8893  -27.6950 O   0  0  0  0  0  0  0  0  0  0  0  0
  -15.7378  -24.3889  -26.0561 C   0  0  0  0  0  0  0  0  0  0  0  0
  -13.3308  -23.6575  -25.5430 C   0  0  0  0  0  0  0  0  0  0  0  0
  -13.8633  -15.1104  -28.5859 F   0  0  0  0  0  0  0  0  0  0  0  0
  -14.1833  -12.5819  -28.0220 H   0  0  0  0  0  0  0  0  0  0  0  0
  -16.7867  -14.9688  -26.1536 H   0  0  0  0  0  0  0  0  0  0  0  0
  -15.3868  -11.6872  -26.0607 H   0  0  0  0  0  0  0  0  0  0  0  0
  -16.5367  -13.2257  -24.4919 H   0  0  0  0  0  0  0  0  0  0  0  0
  -16.3771  -19.7238  -24.2355 H   0  0  0  0  0  0  0  0  0  0  0  0
  -16.0581  -22.1531  -24.5112 H   0  0  0  0  0  0  0  0  0  0  0  0
  -13.8836  -21.4549  -28.1366 H   0  0  0  0  0  0  0  0  0  0  0  0
  -14.2149  -19.0357  -27.8763 H   0  0  0  0  0  0  0  0  0  0  0  0
  -14.0310  -24.8161  -27.6710 H   0  0  0  0  0  0  0  0  0  0  0  0
  -15.4024  -25.4337  -26.1332 H   0  0  0  0  0  0  0  0  0  0  0  0
  -16.0751  -24.1871  -25.0287 H   0  0  0  0  0  0  0  0  0  0  0  0
  -16.5697  -24.2185  -26.7553 H   0  0  0  0  0  0  0  0  0  0  0  0
  -13.0389  -24.7178  -25.5667 H   0  0  0  0  0  0  0  0  0  0  0  0
  -12.5076  -23.0419  -25.9347 H   0  0  0  0  0  0  0  0  0  0  0  0
  -13.5496  -23.3607  -24.5067 H   0  0  0  0  0  0  0  0  0  0  0  0
  1  2  1  0  0  0  0
  1  3  2  0  0  0  0
  1 22  1  0  0  0  0
  2  4  1  0  0  0  0
  2  5  2  0  0  0  0
  3  6  1  0  0  0  0
  4  7  1  0  0  0  0
  4  8  1  0  0  0  0
  5 11  1  0  0  0  0
  6  7  2  0  0  0  0
  8  9  1  0  0  0  0
  8 10  2  0  0  0  0
  9 11  2  0  0  0  0
 11 12  1  0  0  0  0
 12 13  2  0  0  0  0
 12 17  1  0  0  0  0
 13 14  1  0  0  0  0
 14 15  2  0  0  0  0
 15 16  1  0  0  0  0
 15 18  1  0  0  0  0
 16 17  2  0  0  0  0
 18 19  1  0  0  0  0
 18 20  1  0  0  0  0
 18 21  1  0  0  0  0
  3 23  1  0  0  0  0
  4 24  1  0  0  0  0
  6 25  1  0  0  0  0
  7 26  1  0  0  0  0
 13 27  1  0  0  0  0
 14 28  1  0  0  0  0
 16 29  1  0  0  0  0
 17 30  1  0  0  0  0
 19 31  1  0  0  0  0
 20 32  1  0  0  0  0
 20 33  1  0  0  0  0
 20 34  1  0  0  0  0
 21 35  1  0  0  0  0
 21 36  1  0  0  0  0
 21 37  1  0  0  0  0
M  END
> <Name>
5f

> <IC50[nM]>
30

$$$$
5f
  -OEChem-05192314333D
 Structure written by MMmdl.
 37 39  0     0  0  0  0  0  0999 V2000
  -14.5642  -14.6384  -27.5273 C   0  0  0  0  0  0  0  0  0  0  0  0
  -15.1482  -15.5111  -26.6015 C   0  0  0  0  0  0  0  0  0  0  0  0
  -14.6521  -13.2595  -27.3238 C   0  0  0  0  0  0  0  0  0  0  0  0
  -15.8827  -14.9938  -25.5273 C   0  0  0  0  0  0  0  0  0  0  0  0
  -14.9607  -16.8981  -26.7338 N   0  0  0  0  0  0  0  0  0  0  0  0
  -15.3427  -12.7540  -26.2229 C   0  0  0  0  0  0  0  0  0  0  0  0
  -15.9780  -13.6190  -25.3283 C   0  0  0  0  0  0  0  0  0  0  0  0
  -16.5556  -15.9641  -24.5881 C   0  0  0  0  0  0  0  0  0  0  0  0
  -16.1974  -17.2475  -24.8411 N   0  0  0  0  0  0  0  0  0  0  0  0
  -17.3643  -15.6757  -23.7122 O   0  0  0  0  0  0  0  0  0  0  0  0
  -15.4538  -17.7454  -25.8883 C   0  0  0  0  0  0  0  0  0  0  0  0
  -15.2992  -19.2055  -26.0279 C   0  0  0  0  0  0  0  0  0  0  0  0
  -15.8269  -20.1007  -25.0850 C   0  0  0  0  0  0  0  0  0  0  0  0
  -15.6451  -21.4700  -25.2387 C   0  0  0  0  0  0  0  0  0  0  0  0
  -14.9295  -21.9653  -26.3318 C   0  0  0  0  0  0  0  0  0  0  0  0
  -14.4231  -21.0764  -27.2810 C   0  0  0  0  0  0  0  0  0  0  0  0
  -14.6078  -19.7133  -27.1328 C   0  0  0  0  0  0  0  0  0  0  0  0
  -14.5764  -23.4515  -26.4059 C   0  0  0  0  0  0  0  0  0  0  0  0
  -14.2382  -23.8893  -27.6950 O   0  0  0  0  0  0  0  0  0  0  0  0
  -15.7378  -24.3889  -26.0561 C   0  0  0  0  0  0  0  0  0  0  0  0
  -13.3308  -23.6575  -25.5430 C   0  0  0  0  0  0  0  0  0  0  0  0
  -13.8633  -15.1104  -28.5859 F   0  0  0  0  0  0  0  0  0  0  0  0
  -14.1833  -12.5819  -28.0220 H   0  0  0  0  0  0  0  0  0  0  0  0
  -14.6178  -12.1703  -25.6365 H   0  0  0  0  0  0  0  0  0  0  0  0
  -16.1194  -12.0830  -26.6185 H   0  0  0  0  0  0  0  0  0  0  0  0
  -16.5367  -13.2257  -24.4919 H   0  0  0  0  0  0  0  0  0  0  0  0
  -16.3771  -19.7238  -24.2355 H   0  0  0  0  0  0  0  0  0  0  0  0
  -16.0581  -22.1531  -24.5112 H   0  0  0  0  0  0  0  0  0  0  0  0
  -13.8836  -21.4549  -28.1366 H   0  0  0  0  0  0  0  0  0  0  0  0
  -14.2149  -19.0357  -27.8763 H   0  0  0  0  0  0  0  0  0  0  0  0
  -14.0310  -24.8161  -27.6710 H   0  0  0  0  0  0  0  0  0  0  0  0
  -15.4024  -25.4337  -26.1332 H   0  0  0  0  0  0  0  0  0  0  0  0
  -16.0751  -24.1871  -25.0287 H   0  0  0  0  0  0  0  0  0  0  0  0
  -16.5697  -24.2185  -26.7553 H   0  0  0  0  0  0  0  0  0  0  0  0
  -13.0389  -24.7178  -25.5667 H   0  0  0  0  0  0  0  0  0  0  0  0
  -12.5076  -23.0419  -25.9347 H   0  0  0  0  0  0  0  0  0  0  0  0
  -13.5496  -23.3607  -24.5067 H   0  0  0  0  0  0  0  0  0  0  0  0
  1  2  1  0  0  0  0
  1  3  2  0  0  0  0
  1 22  1  0  0  0  0
  2  4  1  0  0  0  0
  2  5  2  0  0  0  0
  3  6  1  0  0  0  0
  4  7  2  0  0  0  0
  4  8  1  0  0  0  0
  5 11  1  0  0  0  0
  6  7  1  0  0  0  0
  8  9  1  0  0  0  0
  8 10  2  0  0  0  0
  9 11  2  0  0  0  0
 11 12  1  0  0  0  0
 12 13  2  0  0  0  0
 12 17  1  0  0  0  0
 13 14  1  0  0  0  0
 14 15  2  0  0  0  0
 15 16  1  0  0  0  0
 15 18  1  0  0  0  0
 16 17  2  0  0  0  0
 18 19  1  0  0  0  0
 18 20  1  0  0  0  0
 18 21  1  0  0  0  0
  3 23  1  0  0  0  0
  6 24  1  0  0  0  0
  6 25  1  0  0  0  0
  7 26  1  0  0  0  0
 13 27  1  0  0  0  0
 14 28  1  0  0  0  0
 16 29  1  0  0  0  0
 17 30  1  0  0  0  0
 19 31  1  0  0  0  0
 20 32  1  0  0  0  0
 20 33  1  0  0  0  0
 20 34  1  0  0  0  0
 21 35  1  0  0  0  0
 21 36  1  0  0  0  0
 21 37  1  0  0  0  0
M  END
> <Name>
5f

> <IC50[nM]>
30

$$$$
