5c
  -OEChem-05192314333D
 Structure written by MMmdl.
 37 39  0     0  0  0  0  0  0999 V2000
  -14.6402  -14.6836  -27.5547 C   0  0  0  0  0  0  0  0  0  0  0  0
  -15.1755  -15.5552  -26.6036 C   0  0  0  0  0  0  0  0  0  0  0  0
  -14.7438  -13.3055  -27.3562 C   0  0  0  0  0  0  0  0  0  0  0  0
  -15.8696  -15.0613  -25.4918 C   0  0  0  0  0  0  0  0  0  0  0  0
  -14.9688  -16.9303  -26.7569 N   0  0  0  0  0  0  0  0  0  0  0  0
  -15.3733  -12.8094  -26.2126 C   0  0  0  0  0  0  0  0  0  0  0  0
  -15.9336  -13.6874  -25.2804 C   0  0  0  0  0  0  0  0  0  0  0  0
  -16.5077  -16.0631  -24.5388 C   0  0  0  0  0  0  0  0  0  0  0  0
  -16.1797  -17.3276  -24.8519 N   0  0  0  0  0  0  0  0  0  0  0  0
  -17.2756  -15.8537  -23.5980 O   0  0  0  0  0  0  0  0  0  0  0  0
  -15.4325  -17.7880  -25.9083 C   0  0  0  0  0  0  0  0  0  0  0  0
  -15.2347  -19.2298  -26.0215 C   0  0  0  0  0  0  0  0  0  0  0  0
  -14.5685  -19.7364  -27.1395 C   0  0  0  0  0  0  0  0  0  0  0  0
  -14.3729  -21.0966  -27.2695 C   0  0  0  0  0  0  0  0  0  0  0  0
  -14.8512  -21.9648  -26.2915 C   0  0  0  0  0  0  0  0  0  0  0  0
  -15.5073  -21.4630  -25.1657 C   0  0  0  0  0  0  0  0  0  0  0  0
  -15.7070  -20.1036  -25.0334 C   0  0  0  0  0  0  0  0  0  0  0  0
  -14.5890  -23.4530  -26.4105 C   0  0  0  0  0  0  0  0  0  0  0  0
  -14.2420  -23.8777  -27.6930 O   0  0  0  0  0  0  0  0  0  0  0  0
  -15.8426  -24.2713  -26.2211 C   0  0  0  0  0  0  0  0  0  0  0  0
  -13.4461  -23.8224  -25.4773 C   0  0  0  0  0  0  0  0  0  0  0  0
  -16.6478  -13.0758  -23.8537 Cl  0  0  0  0  0  0  0  0  0  0  0  0
  -14.1507  -15.0721  -28.4355 H   0  0  0  0  0  0  0  0  0  0  0  0
  -14.3369  -12.6228  -28.0875 H   0  0  0  0  0  0  0  0  0  0  0  0
  -15.4274  -11.7434  -26.0478 H   0  0  0  0  0  0  0  0  0  0  0  0
  -16.5272  -18.0299  -24.2306 H   0  0  0  0  0  0  0  0  0  0  0  0
  -14.2062  -19.0636  -27.9027 H   0  0  0  0  0  0  0  0  0  0  0  0
  -13.8491  -21.4873  -28.1294 H   0  0  0  0  0  0  0  0  0  0  0  0
  -15.8582  -22.1379  -24.3991 H   0  0  0  0  0  0  0  0  0  0  0  0
  -16.2262  -19.7144  -24.1701 H   0  0  0  0  0  0  0  0  0  0  0  0
  -14.0943  -24.8161  -27.6872 H   0  0  0  0  0  0  0  0  0  0  0  0
  -15.6012  -25.3403  -26.3163 H   0  0  0  0  0  0  0  0  0  0  0  0
  -16.2595  -24.0772  -25.2218 H   0  0  0  0  0  0  0  0  0  0  0  0
  -16.5813  -23.9928  -26.9871 H   0  0  0  0  0  0  0  0  0  0  0  0
  -13.2442  -24.9011  -25.5530 H   0  0  0  0  0  0  0  0  0  0  0  0
  -12.5445  -23.2600  -25.7615 H   0  0  0  0  0  0  0  0  0  0  0  0
  -13.7228  -23.5730  -24.4423 H   0  0  0  0  0  0  0  0  0  0  0  0
  1  2  2  0  0  0  0
  1  3  1  0  0  0  0
  2  4  1  0  0  0  0
  2  5  1  0  0  0  0
  3  6  2  0  0  0  0
  4  7  2  0  0  0  0
  4  8  1  0  0  0  0
  5 11  2  0  0  0  0
  6  7  1  0  0  0  0
  7 22  1  0  0  0  0
  8  9  1  0  0  0  0
  8 10  2  0  0  0  0
  9 11  1  0  0  0  0
 11 12  1  0  0  0  0
 12 13  2  0  0  0  0
 12 17  1  0  0  0  0
 13 14  1  0  0  0  0
 14 15  2  0  0  0  0
 15 16  1  0  0  0  0
 15 18  1  0  0  0  0
 16 17  2  0  0  0  0
 18 19  1  0  0  0  0
 18 20  1  0  0  0  0
 18 21  1  0  0  0  0
  1 23  1  0  0  0  0
  3 24  1  0  0  0  0
  6 25  1  0  0  0  0
  9 26  1  0  0  0  0
 13 27  1  0  0  0  0
 14 28  1  0  0  0  0
 16 29  1  0  0  0  0
 17 30  1  0  0  0  0
 19 31  1  0  0  0  0
 20 32  1  0  0  0  0
 20 33  1  0  0  0  0
 20 34  1  0  0  0  0
 21 35  1  0  0  0  0
 21 36  1  0  0  0  0
 21 37  1  0  0  0  0
M  END
> <Name>
5c

> <IC50[nM]>
50

$$$$
5c
  -OEChem-05192314333D
 Structure written by MMmdl.
 37 39  0     0  0  0  0  0  0999 V2000
  -14.6402  -14.6836  -27.5547 C   0  0  0  0  0  0  0  0  0  0  0  0
  -15.1755  -15.5552  -26.6036 C   0  0  0  0  0  0  0  0  0  0  0  0
  -14.7438  -13.3055  -27.3562 C   0  0  0  0  0  0  0  0  0  0  0  0
  -15.8696  -15.0613  -25.4918 C   0  0  0  0  0  0  0  0  0  0  0  0
  -14.9688  -16.9303  -26.7569 N   0  0  0  0  0  0  0  0  0  0  0  0
  -15.3733  -12.8094  -26.2126 C   0  0  0  0  0  0  0  0  0  0  0  0
  -15.9336  -13.6874  -25.2804 C   0  0  0  0  0  0  0  0  0  0  0  0
  -16.5077  -16.0631  -24.5388 C   0  0  0  0  0  0  0  0  0  0  0  0
  -16.1797  -17.3276  -24.8519 N   0  0  0  0  0  0  0  0  0  0  0  0
  -17.2756  -15.8537  -23.5980 O   0  0  0  0  0  0  0  0  0  0  0  0
  -15.4325  -17.7880  -25.9083 C   0  0  0  0  0  0  0  0  0  0  0  0
  -15.2347  -19.2298  -26.0215 C   0  0  0  0  0  0  0  0  0  0  0  0
  -14.5685  -19.7364  -27.1395 C   0  0  0  0  0  0  0  0  0  0  0  0
  -14.3729  -21.0966  -27.2695 C   0  0  0  0  0  0  0  0  0  0  0  0
  -14.8512  -21.9648  -26.2915 C   0  0  0  0  0  0  0  0  0  0  0  0
  -15.5073  -21.4630  -25.1657 C   0  0  0  0  0  0  0  0  0  0  0  0
  -15.7070  -20.1036  -25.0334 C   0  0  0  0  0  0  0  0  0  0  0  0
  -14.5890  -23.4530  -26.4105 C   0  0  0  0  0  0  0  0  0  0  0  0
  -14.2420  -23.8777  -27.6930 O   0  0  0  0  0  0  0  0  0  0  0  0
  -15.8426  -24.2713  -26.2211 C   0  0  0  0  0  0  0  0  0  0  0  0
  -13.4461  -23.8224  -25.4773 C   0  0  0  0  0  0  0  0  0  0  0  0
  -16.6478  -13.0758  -23.8537 Cl  0  0  0  0  0  0  0  0  0  0  0  0
  -14.1507  -15.0721  -28.4355 H   0  0  0  0  0  0  0  0  0  0  0  0
  -14.3369  -12.6228  -28.0875 H   0  0  0  0  0  0  0  0  0  0  0  0
  -14.4479  -17.2588  -27.5448 H   0  0  0  0  0  0  0  0  0  0  0  0
  -15.4274  -11.7434  -26.0478 H   0  0  0  0  0  0  0  0  0  0  0  0
  -14.2062  -19.0636  -27.9027 H   0  0  0  0  0  0  0  0  0  0  0  0
  -13.8491  -21.4873  -28.1294 H   0  0  0  0  0  0  0  0  0  0  0  0
  -15.8582  -22.1379  -24.3991 H   0  0  0  0  0  0  0  0  0  0  0  0
  -16.2262  -19.7144  -24.1701 H   0  0  0  0  0  0  0  0  0  0  0  0
  -14.0943  -24.8161  -27.6872 H   0  0  0  0  0  0  0  0  0  0  0  0
  -15.6012  -25.3403  -26.3163 H   0  0  0  0  0  0  0  0  0  0  0  0
  -16.2595  -24.0772  -25.2218 H   0  0  0  0  0  0  0  0  0  0  0  0
  -16.5813  -23.9928  -26.9871 H   0  0  0  0  0  0  0  0  0  0  0  0
  -13.2442  -24.9011  -25.5530 H   0  0  0  0  0  0  0  0  0  0  0  0
  -12.5445  -23.2600  -25.7615 H   0  0  0  0  0  0  0  0  0  0  0  0
  -13.7228  -23.5730  -24.4423 H   0  0  0  0  0  0  0  0  0  0  0  0
  1  2  2  0  0  0  0
  1  3  1  0  0  0  0
  2  4  1  0  0  0  0
  2  5  1  0  0  0  0
  3  6  2  0  0  0  0
  4  7  2  0  0  0  0
  4  8  1  0  0  0  0
  5 11  1  0  0  0  0
  6  7  1  0  0  0  0
  7 22  1  0  0  0  0
  8  9  1  0  0  0  0
  8 10  2  0  0  0  0
  9 11  2  0  0  0  0
 11 12  1  0  0  0  0
 12 13  2  0  0  0  0
 12 17  1  0  0  0  0
 13 14  1  0  0  0  0
 14 15  2  0  0  0  0
 15 16  1  0  0  0  0
 15 18  1  0  0  0  0
 16 17  2  0  0  0  0
 18 19  1  0  0  0  0
 18 20  1  0  0  0  0
 18 21  1  0  0  0  0
  1 23  1  0  0  0  0
  3 24  1  0  0  0  0
  5 25  1  0  0  0  0
  6 26  1  0  0  0  0
 13 27  1  0  0  0  0
 14 28  1  0  0  0  0
 16 29  1  0  0  0  0
 17 30  1  0  0  0  0
 19 31  1  0  0  0  0
 20 32  1  0  0  0  0
 20 33  1  0  0  0  0
 20 34  1  0  0  0  0
 21 35  1  0  0  0  0
 21 36  1  0  0  0  0
 21 37  1  0  0  0  0
M  END
> <Name>
5c

> <IC50[nM]>
50

$$$$
5c
  -OEChem-05192314333D
 Structure written by MMmdl.
 37 39  0     0  0  0  0  0  0999 V2000
  -14.6402  -14.6836  -27.5547 C   0  0  0  0  0  0  0  0  0  0  0  0
  -15.1755  -15.5552  -26.6036 C   0  0  0  0  0  0  0  0  0  0  0  0
  -14.7438  -13.3055  -27.3562 C   0  0  0  0  0  0  0  0  0  0  0  0
  -15.8696  -15.0613  -25.4918 C   0  0  0  0  0  0  0  0  0  0  0  0
  -14.9688  -16.9303  -26.7569 N   0  0  0  0  0  0  0  0  0  0  0  0
  -15.3733  -12.8094  -26.2126 C   0  0  0  0  0  0  0  0  0  0  0  0
  -15.9336  -13.6874  -25.2804 C   0  0  0  0  0  0  0  0  0  0  0  0
  -16.5077  -16.0631  -24.5388 C   0  0  0  0  0  0  0  0  0  0  0  0
  -16.1797  -17.3276  -24.8519 N   0  0  0  0  0  0  0  0  0  0  0  0
  -17.2756  -15.8537  -23.5980 O   0  0  0  0  0  0  0  0  0  0  0  0
  -15.4325  -17.7880  -25.9083 C   0  0  0  0  0  0  0  0  0  0  0  0
  -15.2347  -19.2298  -26.0215 C   0  0  0  0  0  0  0  0  0  0  0  0
  -14.5685  -19.7364  -27.1395 C   0  0  0  0  0  0  0  0  0  0  0  0
  -14.3729  -21.0966  -27.2695 C   0  0  0  0  0  0  0  0  0  0  0  0
  -14.8512  -21.9648  -26.2915 C   0  0  0  0  0  0  0  0  0  0  0  0
  -15.5073  -21.4630  -25.1657 C   0  0  0  0  0  0  0  0  0  0  0  0
  -15.7070  -20.1036  -25.0334 C   0  0  0  0  0  0  0  0  0  0  0  0
  -14.5890  -23.4530  -26.4105 C   0  0  0  0  0  0  0  0  0  0  0  0
  -14.2420  -23.8777  -27.6930 O   0  0  0  0  0  0  0  0  0  0  0  0
  -15.8426  -24.2713  -26.2211 C   0  0  0  0  0  0  0  0  0  0  0  0
  -13.4461  -23.8224  -25.4773 C   0  0  0  0  0  0  0  0  0  0  0  0
  -16.6478  -13.0758  -23.8537 Cl  0  0  0  0  0  0  0  0  0  0  0  0
  -14.1507  -15.0721  -28.4355 H   0  0  0  0  0  0  0  0  0  0  0  0
  -14.3369  -12.6228  -28.0875 H   0  0  0  0  0  0  0  0  0  0  0  0
  -15.4274  -11.7434  -26.0478 H   0  0  0  0  0  0  0  0  0  0  0  0
  -17.5361  -16.6813  -23.2110 H   0  0  0  0  0  0  0  0  0  0  0  0
  -14.2062  -19.0636  -27.9027 H   0  0  0  0  0  0  0  0  0  0  0  0
  -13.8491  -21.4873  -28.1294 H   0  0  0  0  0  0  0  0  0  0  0  0
  -15.8582  -22.1379  -24.3991 H   0  0  0  0  0  0  0  0  0  0  0  0
  -16.2262  -19.7144  -24.1701 H   0  0  0  0  0  0  0  0  0  0  0  0
  -14.0943  -24.8161  -27.6872 H   0  0  0  0  0  0  0  0  0  0  0  0
  -15.6012  -25.3403  -26.3163 H   0  0  0  0  0  0  0  0  0  0  0  0
  -16.2595  -24.0772  -25.2218 H   0  0  0  0  0  0  0  0  0  0  0  0
  -16.5813  -23.9928  -26.9871 H   0  0  0  0  0  0  0  0  0  0  0  0
  -13.2442  -24.9011  -25.5530 H   0  0  0  0  0  0  0  0  0  0  0  0
  -12.5445  -23.2600  -25.7615 H   0  0  0  0  0  0  0  0  0  0  0  0
  -13.7228  -23.5730  -24.4423 H   0  0  0  0  0  0  0  0  0  0  0  0
  1  2  2  0  0  0  0
  1  3  1  0  0  0  0
  2  4  1  0  0  0  0
  2  5  1  0  0  0  0
  3  6  2  0  0  0  0
  4  7  2  0  0  0  0
  4  8  1  0  0  0  0
  5 11  2  0  0  0  0
  6  7  1  0  0  0  0
  7 22  1  0  0  0  0
  8  9  2  0  0  0  0
  8 10  1  0  0  0  0
  9 11  1  0  0  0  0
 11 12  1  0  0  0  0
 12 13  2  0  0  0  0
 12 17  1  0  0  0  0
 13 14  1  0  0  0  0
 14 15  2  0  0  0  0
 15 16  1  0  0  0  0
 15 18  1  0  0  0  0
 16 17  2  0  0  0  0
 18 19  1  0  0  0  0
 18 20  1  0  0  0  0
 18 21  1  0  0  0  0
  1 23  1  0  0  0  0
  3 24  1  0  0  0  0
  6 25  1  0  0  0  0
 10 26  1  0  0  0  0
 13 27  1  0  0  0  0
 14 28  1  0  0  0  0
 16 29  1  0  0  0  0
 17 30  1  0  0  0  0
 19 31  1  0  0  0  0
 20 32  1  0  0  0  0
 20 33  1  0  0  0  0
 20 34  1  0  0  0  0
 21 35  1  0  0  0  0
 21 36  1  0  0  0  0
 21 37  1  0  0  0  0
M  END
> <Name>
5c

> <IC50[nM]>
50

$$$$
5c
  -OEChem-05192314333D
 Structure written by MMmdl.
 37 39  0     1  0  0  0  0  0999 V2000
  -14.6402  -14.6836  -27.5547 C   0  0  0  0  0  0  0  0  0  0  0  0
  -15.1755  -15.5552  -26.6036 C   0  0  0  0  0  0  0  0  0  0  0  0
  -14.7438  -13.3055  -27.3562 C   0  0  0  0  0  0  0  0  0  0  0  0
  -15.8696  -15.0613  -25.4918 C   0  0  3  0  0  0  0  0  0  0  0  0
  -14.9688  -16.9303  -26.7569 N   0  0  0  0  0  0  0  0  0  0  0  0
  -15.3733  -12.8094  -26.2126 C   0  0  0  0  0  0  0  0  0  0  0  0
  -15.9336  -13.6874  -25.2804 C   0  0  0  0  0  0  0  0  0  0  0  0
  -16.5077  -16.0631  -24.5388 C   0  0  0  0  0  0  0  0  0  0  0  0
  -16.1797  -17.3276  -24.8519 N   0  0  0  0  0  0  0  0  0  0  0  0
  -17.2756  -15.8537  -23.5980 O   0  0  0  0  0  0  0  0  0  0  0  0
  -15.4325  -17.7880  -25.9083 C   0  0  0  0  0  0  0  0  0  0  0  0
  -15.2347  -19.2298  -26.0215 C   0  0  0  0  0  0  0  0  0  0  0  0
  -14.5685  -19.7364  -27.1395 C   0  0  0  0  0  0  0  0  0  0  0  0
  -14.3729  -21.0966  -27.2695 C   0  0  0  0  0  0  0  0  0  0  0  0
  -14.8512  -21.9648  -26.2915 C   0  0  0  0  0  0  0  0  0  0  0  0
  -15.5073  -21.4630  -25.1657 C   0  0  0  0  0  0  0  0  0  0  0  0
  -15.7070  -20.1036  -25.0334 C   0  0  0  0  0  0  0  0  0  0  0  0
  -14.5890  -23.4530  -26.4105 C   0  0  0  0  0  0  0  0  0  0  0  0
  -14.2420  -23.8777  -27.6930 O   0  0  0  0  0  0  0  0  0  0  0  0
  -15.8426  -24.2713  -26.2211 C   0  0  0  0  0  0  0  0  0  0  0  0
  -13.4461  -23.8224  -25.4773 C   0  0  0  0  0  0  0  0  0  0  0  0
  -16.6478  -13.0758  -23.8537 Cl  0  0  0  0  0  0  0  0  0  0  0  0
  -14.1507  -15.0721  -28.4355 H   0  0  0  0  0  0  0  0  0  0  0  0
  -14.3369  -12.6228  -28.0875 H   0  0  0  0  0  0  0  0  0  0  0  0
  -16.7978  -15.0208  -26.0807 H   0  0  0  0  0  0  0  0  0  0  0  0
  -15.4274  -11.7434  -26.0478 H   0  0  0  0  0  0  0  0  0  0  0  0
  -14.2062  -19.0636  -27.9027 H   0  0  0  0  0  0  0  0  0  0  0  0
  -13.8491  -21.4873  -28.1294 H   0  0  0  0  0  0  0  0  0  0  0  0
  -15.8582  -22.1379  -24.3991 H   0  0  0  0  0  0  0  0  0  0  0  0
  -16.2262  -19.7144  -24.1701 H   0  0  0  0  0  0  0  0  0  0  0  0
  -14.0943  -24.8161  -27.6872 H   0  0  0  0  0  0  0  0  0  0  0  0
  -15.6012  -25.3403  -26.3163 H   0  0  0  0  0  0  0  0  0  0  0  0
  -16.2595  -24.0772  -25.2218 H   0  0  0  0  0  0  0  0  0  0  0  0
  -16.5813  -23.9928  -26.9871 H   0  0  0  0  0  0  0  0  0  0  0  0
  -13.2442  -24.9011  -25.5530 H   0  0  0  0  0  0  0  0  0  0  0  0
  -12.5445  -23.2600  -25.7615 H   0  0  0  0  0  0  0  0  0  0  0  0
  -13.7228  -23.5730  -24.4423 H   0  0  0  0  0  0  0  0  0  0  0  0
  1  2  1  0  0  0  0
  1  3  2  0  0  0  0
  2  4  1  0  0  0  0
  2  5  2  0  0  0  0
  3  6  1  0  0  0  0
  4  7  1  0  0  0  0
  4  8  1  0  0  0  0
  5 11  1  0  0  0  0
  6  7  2  0  0  0  0
  7 22  1  0  0  0  0
  8  9  1  0  0  0  0
  8 10  2  0  0  0  0
  9 11  2  0  0  0  0
 11 12  1  0  0  0  0
 12 13  2  0  0  0  0
 12 17  1  0  0  0  0
 13 14  1  0  0  0  0
 14 15  2  0  0  0  0
 15 16  1  0  0  0  0
 15 18  1  0  0  0  0
 16 17  2  0  0  0  0
 18 19  1  0  0  0  0
 18 20  1  0  0  0  0
 18 21  1  0  0  0  0
  1 23  1  0  0  0  0
  3 24  1  0  0  0  0
  4 25  1  0  0  0  0
  6 26  1  0  0  0  0
 13 27  1  0  0  0  0
 14 28  1  0  0  0  0
 16 29  1  0  0  0  0
 17 30  1  0  0  0  0
 19 31  1  0  0  0  0
 20 32  1  0  0  0  0
 20 33  1  0  0  0  0
 20 34  1  0  0  0  0
 21 35  1  0  0  0  0
 21 36  1  0  0  0  0
 21 37  1  0  0  0  0
M  END
> <Name>
5c

> <IC50[nM]>
50

$$$$
5c
  -OEChem-05192314333D
 Structure written by MMmdl.
 37 39  0     0  0  0  0  0  0999 V2000
  -14.6402  -14.6836  -27.5547 C   0  0  0  0  0  0  0  0  0  0  0  0
  -15.1755  -15.5552  -26.6036 C   0  0  0  0  0  0  0  0  0  0  0  0
  -14.7438  -13.3055  -27.3562 C   0  0  0  0  0  0  0  0  0  0  0  0
  -15.8696  -15.0613  -25.4918 C   0  0  0  0  0  0  0  0  0  0  0  0
  -14.9688  -16.9303  -26.7569 N   0  0  0  0  0  0  0  0  0  0  0  0
  -15.3733  -12.8094  -26.2126 C   0  0  0  0  0  0  0  0  0  0  0  0
  -15.9336  -13.6874  -25.2804 C   0  0  0  0  0  0  0  0  0  0  0  0
  -16.5077  -16.0631  -24.5388 C   0  0  0  0  0  0  0  0  0  0  0  0
  -16.1797  -17.3276  -24.8519 N   0  0  0  0  0  0  0  0  0  0  0  0
  -17.2756  -15.8537  -23.5980 O   0  0  0  0  0  0  0  0  0  0  0  0
  -15.4325  -17.7880  -25.9083 C   0  0  0  0  0  0  0  0  0  0  0  0
  -15.2347  -19.2298  -26.0215 C   0  0  0  0  0  0  0  0  0  0  0  0
  -14.5685  -19.7364  -27.1395 C   0  0  0  0  0  0  0  0  0  0  0  0
  -14.3729  -21.0966  -27.2695 C   0  0  0  0  0  0  0  0  0  0  0  0
  -14.8512  -21.9648  -26.2915 C   0  0  0  0  0  0  0  0  0  0  0  0
  -15.5073  -21.4630  -25.1657 C   0  0  0  0  0  0  0  0  0  0  0  0
  -15.7070  -20.1036  -25.0334 C   0  0  0  0  0  0  0  0  0  0  0  0
  -14.5890  -23.4530  -26.4105 C   0  0  0  0  0  0  0  0  0  0  0  0
  -14.2420  -23.8777  -27.6930 O   0  0  0  0  0  0  0  0  0  0  0  0
  -15.8426  -24.2713  -26.2211 C   0  0  0  0  0  0  0  0  0  0  0  0
  -13.4461  -23.8224  -25.4773 C   0  0  0  0  0  0  0  0  0  0  0  0
  -16.6478  -13.0758  -23.8537 Cl  0  0  0  0  0  0  0  0  0  0  0  0
  -13.5681  -14.9161  -27.6350 H   0  0  0  0  0  0  0  0  0  0  0  0
  -15.1366  -14.9080  -28.5103 H   0  0  0  0  0  0  0  0  0  0  0  0
  -14.3369  -12.6228  -28.0875 H   0  0  0  0  0  0  0  0  0  0  0  0
  -15.4274  -11.7434  -26.0478 H   0  0  0  0  0  0  0  0  0  0  0  0
  -14.2062  -19.0636  -27.9027 H   0  0  0  0  0  0  0  0  0  0  0  0
  -13.8491  -21.4873  -28.1294 H   0  0  0  0  0  0  0  0  0  0  0  0
  -15.8582  -22.1379  -24.3991 H   0  0  0  0  0  0  0  0  0  0  0  0
  -16.2262  -19.7144  -24.1701 H   0  0  0  0  0  0  0  0  0  0  0  0
  -14.0943  -24.8161  -27.6872 H   0  0  0  0  0  0  0  0  0  0  0  0
  -15.6012  -25.3403  -26.3163 H   0  0  0  0  0  0  0  0  0  0  0  0
  -16.2595  -24.0772  -25.2218 H   0  0  0  0  0  0  0  0  0  0  0  0
  -16.5813  -23.9928  -26.9871 H   0  0  0  0  0  0  0  0  0  0  0  0
  -13.2442  -24.9011  -25.5530 H   0  0  0  0  0  0  0  0  0  0  0  0
  -12.5445  -23.2600  -25.7615 H   0  0  0  0  0  0  0  0  0  0  0  0
  -13.7228  -23.5730  -24.4423 H   0  0  0  0  0  0  0  0  0  0  0  0
  1  2  1  0  0  0  0
  1  3  1  0  0  0  0
  2  4  1  0  0  0  0
  2  5  2  0  0  0  0
  3  6  2  0  0  0  0
  4  7  2  0  0  0  0
  4  8  1  0  0  0  0
  5 11  1  0  0  0  0
  6  7  1  0  0  0  0
  7 22  1  0  0  0  0
  8  9  1  0  0  0  0
  8 10  2  0  0  0  0
  9 11  2  0  0  0  0
 11 12  1  0  0  0  0
 12 13  2  0  0  0  0
 12 17  1  0  0  0  0
 13 14  1  0  0  0  0
 14 15  2  0  0  0  0
 15 16  1  0  0  0  0
 15 18  1  0  0  0  0
 16 17  2  0  0  0  0
 18 19  1  0  0  0  0
 18 20  1  0  0  0  0
 18 21  1  0  0  0  0
  1 23  1  0  0  0  0
  1 24  1  0  0  0  0
  3 25  1  0  0  0  0
  6 26  1  0  0  0  0
 13 27  1  0  0  0  0
 14 28  1  0  0  0  0
 16 29  1  0  0  0  0
 17 30  1  0  0  0  0
 19 31  1  0  0  0  0
 20 32  1  0  0  0  0
 20 33  1  0  0  0  0
 20 34  1  0  0  0  0
 21 35  1  0  0  0  0
 21 36  1  0  0  0  0
 21 37  1  0  0  0  0
M  END
> <Name>
5c

> <IC50[nM]>
50

$$$$
5c
  -OEChem-05192314333D
 Structure written by MMmdl.
 37 39  0     0  0  0  0  0  0999 V2000
  -14.6402  -14.6836  -27.5547 C   0  0  0  0  0  0  0  0  0  0  0  0
  -15.1755  -15.5552  -26.6036 C   0  0  0  0  0  0  0  0  0  0  0  0
  -14.7438  -13.3055  -27.3562 C   0  0  0  0  0  0  0  0  0  0  0  0
  -15.8696  -15.0613  -25.4918 C   0  0  0  0  0  0  0  0  0  0  0  0
  -14.9688  -16.9303  -26.7569 N   0  0  0  0  0  0  0  0  0  0  0  0
  -15.3733  -12.8094  -26.2126 C   0  0  0  0  0  0  0  0  0  0  0  0
  -15.9336  -13.6874  -25.2804 C   0  0  0  0  0  0  0  0  0  0  0  0
  -16.5077  -16.0631  -24.5388 C   0  0  0  0  0  0  0  0  0  0  0  0
  -16.1797  -17.3276  -24.8519 N   0  0  0  0  0  0  0  0  0  0  0  0
  -17.2756  -15.8537  -23.5980 O   0  0  0  0  0  0  0  0  0  0  0  0
  -15.4325  -17.7880  -25.9083 C   0  0  0  0  0  0  0  0  0  0  0  0
  -15.2347  -19.2298  -26.0215 C   0  0  0  0  0  0  0  0  0  0  0  0
  -14.5685  -19.7364  -27.1395 C   0  0  0  0  0  0  0  0  0  0  0  0
  -14.3729  -21.0966  -27.2695 C   0  0  0  0  0  0  0  0  0  0  0  0
  -14.8512  -21.9648  -26.2915 C   0  0  0  0  0  0  0  0  0  0  0  0
  -15.5073  -21.4630  -25.1657 C   0  0  0  0  0  0  0  0  0  0  0  0
  -15.7070  -20.1036  -25.0334 C   0  0  0  0  0  0  0  0  0  0  0  0
  -14.5890  -23.4530  -26.4105 C   0  0  0  0  0  0  0  0  0  0  0  0
  -14.2420  -23.8777  -27.6930 O   0  0  0  0  0  0  0  0  0  0  0  0
  -15.8426  -24.2713  -26.2211 C   0  0  0  0  0  0  0  0  0  0  0  0
  -13.4461  -23.8224  -25.4773 C   0  0  0  0  0  0  0  0  0  0  0  0
  -16.6478  -13.0758  -23.8537 Cl  0  0  0  0  0  0  0  0  0  0  0  0
  -14.1507  -15.0721  -28.4355 H   0  0  0  0  0  0  0  0  0  0  0  0
  -14.3369  -12.6228  -28.0875 H   0  0  0  0  0  0  0  0  0  0  0  0
  -14.6240  -12.2113  -25.6733 H   0  0  0  0  0  0  0  0  0  0  0  0
  -16.1862  -12.1538  -26.5581 H   0  0  0  0  0  0  0  0  0  0  0  0
  -14.2062  -19.0636  -27.9027 H   0  0  0  0  0  0  0  0  0  0  0  0
  -13.8491  -21.4873  -28.1294 H   0  0  0  0  0  0  0  0  0  0  0  0
  -15.8582  -22.1379  -24.3991 H   0  0  0  0  0  0  0  0  0  0  0  0
  -16.2262  -19.7144  -24.1701 H   0  0  0  0  0  0  0  0  0  0  0  0
  -14.0943  -24.8161  -27.6872 H   0  0  0  0  0  0  0  0  0  0  0  0
  -15.6012  -25.3403  -26.3163 H   0  0  0  0  0  0  0  0  0  0  0  0
  -16.2595  -24.0772  -25.2218 H   0  0  0  0  0  0  0  0  0  0  0  0
  -16.5813  -23.9928  -26.9871 H   0  0  0  0  0  0  0  0  0  0  0  0
  -13.2442  -24.9011  -25.5530 H   0  0  0  0  0  0  0  0  0  0  0  0
  -12.5445  -23.2600  -25.7615 H   0  0  0  0  0  0  0  0  0  0  0  0
  -13.7228  -23.5730  -24.4423 H   0  0  0  0  0  0  0  0  0  0  0  0
  1  2  1  0  0  0  0
  1  3  2  0  0  0  0
  2  4  1  0  0  0  0
  2  5  2  0  0  0  0
  3  6  1  0  0  0  0
  4  7  2  0  0  0  0
  4  8  1  0  0  0  0
  5 11  1  0  0  0  0
  6  7  1  0  0  0  0
  7 22  1  0  0  0  0
  8  9  1  0  0  0  0
  8 10  2  0  0  0  0
  9 11  2  0  0  0  0
 11 12  1  0  0  0  0
 12 13  2  0  0  0  0
 12 17  1  0  0  0  0
 13 14  1  0  0  0  0
 14 15  2  0  0  0  0
 15 16  1  0  0  0  0
 15 18  1  0  0  0  0
 16 17  2  0  0  0  0
 18 19  1  0  0  0  0
 18 20  1  0  0  0  0
 18 21  1  0  0  0  0
  1 23  1  0  0  0  0
  3 24  1  0  0  0  0
  6 25  1  0  0  0  0
  6 26  1  0  0  0  0
 13 27  1  0  0  0  0
 14 28  1  0  0  0  0
 16 29  1  0  0  0  0
 17 30  1  0  0  0  0
 19 31  1  0  0  0  0
 20 32  1  0  0  0  0
 20 33  1  0  0  0  0
 20 34  1  0  0  0  0
 21 35  1  0  0  0  0
 21 36  1  0  0  0  0
 21 37  1  0  0  0  0
M  END
> <Name>
5c

> <IC50[nM]>
50

$$$$
