1a
  -OEChem-05192314333D
 Structure written by MMmdl.
 27 29  0     0  0  0  0  0  0999 V2000
  -15.3524  -19.2206  -25.9684 C   0  0  0  0  0  0  0  0  0  0  0  0
  -14.6526  -19.7081  -27.0823 C   0  0  0  0  0  0  0  0  0  0  0  0
  -15.8555  -20.1235  -25.0241 C   0  0  0  0  0  0  0  0  0  0  0  0
  -14.4541  -21.0636  -27.2485 C   0  0  0  0  0  0  0  0  0  0  0  0
  -15.6357  -21.4854  -25.1840 C   0  0  0  0  0  0  0  0  0  0  0  0
  -15.0526  -16.9445  -26.6871 N   0  0  0  0  0  0  0  0  0  0  0  0
  -14.9347  -21.9631  -26.2988 C   0  0  0  0  0  0  0  0  0  0  0  0
  -15.2162  -15.5610  -26.5929 C   0  0  0  0  0  0  0  0  0  0  0  0
  -15.9031  -15.0059  -25.5037 C   0  0  0  0  0  0  0  0  0  0  0  0
  -15.4462  -12.8187  -26.3599 C   0  0  0  0  0  0  0  0  0  0  0  0
  -14.7773  -13.3552  -27.4525 C   0  0  0  0  0  0  0  0  0  0  0  0
  -16.0203  -13.6235  -25.3815 C   0  0  0  0  0  0  0  0  0  0  0  0
  -14.6768  -14.7359  -27.5934 C   0  0  0  0  0  0  0  0  0  0  0  0
  -16.5313  -15.9392  -24.4895 C   0  0  0  0  0  0  0  0  0  0  0  0
  -16.2584  -17.2435  -24.7671 N   0  0  0  0  0  0  0  0  0  0  0  0
  -15.5317  -17.7669  -25.8203 C   0  0  0  0  0  0  0  0  0  0  0  0
  -17.2406  -15.6098  -23.5374 O   0  0  0  0  0  0  0  0  0  0  0  0
  -14.2658  -19.0165  -27.8162 H   0  0  0  0  0  0  0  0  0  0  0  0
  -16.4134  -19.7617  -24.1731 H   0  0  0  0  0  0  0  0  0  0  0  0
  -13.9251  -21.4282  -28.1166 H   0  0  0  0  0  0  0  0  0  0  0  0
  -16.0072  -22.1799  -24.4450 H   0  0  0  0  0  0  0  0  0  0  0  0
  -14.7676  -23.0230  -26.4216 H   0  0  0  0  0  0  0  0  0  0  0  0
  -15.5228  -11.7454  -26.2673 H   0  0  0  0  0  0  0  0  0  0  0  0
  -14.3362  -12.7023  -28.1911 H   0  0  0  0  0  0  0  0  0  0  0  0
  -16.5455  -13.1860  -24.5453 H   0  0  0  0  0  0  0  0  0  0  0  0
  -14.1922  -15.1658  -28.4575 H   0  0  0  0  0  0  0  0  0  0  0  0
  -16.6331  -17.9115  -24.1242 H   0  0  0  0  0  0  0  0  0  0  0  0
  1  2  2  0  0  0  0
  1  3  1  0  0  0  0
  1 16  1  0  0  0  0
  2  4  1  0  0  0  0
  3  5  2  0  0  0  0
  4  7  2  0  0  0  0
  5  7  1  0  0  0  0
  6  8  1  0  0  0  0
  6 16  2  0  0  0  0
  8  9  2  0  0  0  0
  8 13  1  0  0  0  0
  9 12  1  0  0  0  0
  9 14  1  0  0  0  0
 10 11  1  0  0  0  0
 10 12  2  0  0  0  0
 11 13  2  0  0  0  0
 14 15  1  0  0  0  0
 14 17  2  0  0  0  0
 15 16  1  0  0  0  0
  2 18  1  0  0  0  0
  3 19  1  0  0  0  0
  4 20  1  0  0  0  0
  5 21  1  0  0  0  0
  7 22  1  0  0  0  0
 10 23  1  0  0  0  0
 11 24  1  0  0  0  0
 12 25  1  0  0  0  0
 13 26  1  0  0  0  0
 15 27  1  0  0  0  0
M  END
> <Name>
1a

> <IC50[nM]>
540

$$$$
1a
  -OEChem-05192314333D
 Structure written by MMmdl.
 27 29  0     0  0  0  0  0  0999 V2000
  -15.3524  -19.2206  -25.9684 C   0  0  0  0  0  0  0  0  0  0  0  0
  -14.6526  -19.7081  -27.0823 C   0  0  0  0  0  0  0  0  0  0  0  0
  -15.8555  -20.1235  -25.0241 C   0  0  0  0  0  0  0  0  0  0  0  0
  -14.4541  -21.0636  -27.2485 C   0  0  0  0  0  0  0  0  0  0  0  0
  -15.6357  -21.4854  -25.1840 C   0  0  0  0  0  0  0  0  0  0  0  0
  -15.0526  -16.9445  -26.6871 N   0  0  0  0  0  0  0  0  0  0  0  0
  -14.9347  -21.9631  -26.2988 C   0  0  0  0  0  0  0  0  0  0  0  0
  -15.2162  -15.5610  -26.5929 C   0  0  0  0  0  0  0  0  0  0  0  0
  -15.9031  -15.0059  -25.5037 C   0  0  0  0  0  0  0  0  0  0  0  0
  -15.4462  -12.8187  -26.3599 C   0  0  0  0  0  0  0  0  0  0  0  0
  -14.7773  -13.3552  -27.4525 C   0  0  0  0  0  0  0  0  0  0  0  0
  -16.0203  -13.6235  -25.3815 C   0  0  0  0  0  0  0  0  0  0  0  0
  -14.6768  -14.7359  -27.5934 C   0  0  0  0  0  0  0  0  0  0  0  0
  -16.5313  -15.9392  -24.4895 C   0  0  0  0  0  0  0  0  0  0  0  0
  -16.2584  -17.2435  -24.7671 N   0  0  0  0  0  0  0  0  0  0  0  0
  -15.5317  -17.7669  -25.8203 C   0  0  0  0  0  0  0  0  0  0  0  0
  -17.2406  -15.6098  -23.5374 O   0  0  0  0  0  0  0  0  0  0  0  0
  -14.2658  -19.0165  -27.8162 H   0  0  0  0  0  0  0  0  0  0  0  0
  -16.4134  -19.7617  -24.1731 H   0  0  0  0  0  0  0  0  0  0  0  0
  -13.9251  -21.4282  -28.1166 H   0  0  0  0  0  0  0  0  0  0  0  0
  -16.0072  -22.1799  -24.4450 H   0  0  0  0  0  0  0  0  0  0  0  0
  -14.5402  -17.3130  -27.4628 H   0  0  0  0  0  0  0  0  0  0  0  0
  -14.7676  -23.0230  -26.4216 H   0  0  0  0  0  0  0  0  0  0  0  0
  -15.5228  -11.7454  -26.2673 H   0  0  0  0  0  0  0  0  0  0  0  0
  -14.3362  -12.7023  -28.1911 H   0  0  0  0  0  0  0  0  0  0  0  0
  -16.5455  -13.1860  -24.5453 H   0  0  0  0  0  0  0  0  0  0  0  0
  -14.1922  -15.1658  -28.4575 H   0  0  0  0  0  0  0  0  0  0  0  0
  1  2  2  0  0  0  0
  1  3  1  0  0  0  0
  1 16  1  0  0  0  0
  2  4  1  0  0  0  0
  3  5  2  0  0  0  0
  4  7  2  0  0  0  0
  5  7  1  0  0  0  0
  6  8  1  0  0  0  0
  6 16  1  0  0  0  0
  8  9  2  0  0  0  0
  8 13  1  0  0  0  0
  9 12  1  0  0  0  0
  9 14  1  0  0  0  0
 10 11  1  0  0  0  0
 10 12  2  0  0  0  0
 11 13  2  0  0  0  0
 14 15  1  0  0  0  0
 14 17  2  0  0  0  0
 15 16  2  0  0  0  0
  2 18  1  0  0  0  0
  3 19  1  0  0  0  0
  4 20  1  0  0  0  0
  5 21  1  0  0  0  0
  6 22  1  0  0  0  0
  7 23  1  0  0  0  0
 10 24  1  0  0  0  0
 11 25  1  0  0  0  0
 12 26  1  0  0  0  0
 13 27  1  0  0  0  0
M  END
> <Name>
1a

> <IC50[nM]>
540

$$$$
1a
  -OEChem-05192314333D
 Structure written by MMmdl.
 27 29  0     0  0  0  0  0  0999 V2000
  -15.3524  -19.2206  -25.9684 C   0  0  0  0  0  0  0  0  0  0  0  0
  -14.6526  -19.7081  -27.0823 C   0  0  0  0  0  0  0  0  0  0  0  0
  -15.8555  -20.1235  -25.0241 C   0  0  0  0  0  0  0  0  0  0  0  0
  -14.4541  -21.0636  -27.2485 C   0  0  0  0  0  0  0  0  0  0  0  0
  -15.6357  -21.4854  -25.1840 C   0  0  0  0  0  0  0  0  0  0  0  0
  -15.0526  -16.9445  -26.6871 N   0  0  0  0  0  0  0  0  0  0  0  0
  -14.9347  -21.9631  -26.2988 C   0  0  0  0  0  0  0  0  0  0  0  0
  -15.2162  -15.5610  -26.5929 C   0  0  0  0  0  0  0  0  0  0  0  0
  -15.9031  -15.0059  -25.5037 C   0  0  0  0  0  0  0  0  0  0  0  0
  -15.4462  -12.8187  -26.3599 C   0  0  0  0  0  0  0  0  0  0  0  0
  -14.7773  -13.3552  -27.4525 C   0  0  0  0  0  0  0  0  0  0  0  0
  -16.0203  -13.6235  -25.3815 C   0  0  0  0  0  0  0  0  0  0  0  0
  -14.6768  -14.7359  -27.5934 C   0  0  0  0  0  0  0  0  0  0  0  0
  -16.5313  -15.9392  -24.4895 C   0  0  0  0  0  0  0  0  0  0  0  0
  -16.2584  -17.2435  -24.7671 N   0  0  0  0  0  0  0  0  0  0  0  0
  -15.5317  -17.7669  -25.8203 C   0  0  0  0  0  0  0  0  0  0  0  0
  -17.2406  -15.6098  -23.5374 O   0  0  0  0  0  0  0  0  0  0  0  0
  -14.2658  -19.0165  -27.8162 H   0  0  0  0  0  0  0  0  0  0  0  0
  -16.4134  -19.7617  -24.1731 H   0  0  0  0  0  0  0  0  0  0  0  0
  -13.9251  -21.4282  -28.1166 H   0  0  0  0  0  0  0  0  0  0  0  0
  -16.0072  -22.1799  -24.4450 H   0  0  0  0  0  0  0  0  0  0  0  0
  -14.7676  -23.0230  -26.4216 H   0  0  0  0  0  0  0  0  0  0  0  0
  -15.5228  -11.7454  -26.2673 H   0  0  0  0  0  0  0  0  0  0  0  0
  -14.3362  -12.7023  -28.1911 H   0  0  0  0  0  0  0  0  0  0  0  0
  -16.5455  -13.1860  -24.5453 H   0  0  0  0  0  0  0  0  0  0  0  0
  -14.1922  -15.1658  -28.4575 H   0  0  0  0  0  0  0  0  0  0  0  0
  -17.5331  -16.3870  -23.0760 H   0  0  0  0  0  0  0  0  0  0  0  0
  1  2  2  0  0  0  0
  1  3  1  0  0  0  0
  1 16  1  0  0  0  0
  2  4  1  0  0  0  0
  3  5  2  0  0  0  0
  4  7  2  0  0  0  0
  5  7  1  0  0  0  0
  6  8  2  0  0  0  0
  6 16  1  0  0  0  0
  8  9  1  0  0  0  0
  8 13  1  0  0  0  0
  9 12  1  0  0  0  0
  9 14  2  0  0  0  0
 10 11  1  0  0  0  0
 10 12  2  0  0  0  0
 11 13  2  0  0  0  0
 14 15  1  0  0  0  0
 14 17  1  0  0  0  0
 15 16  2  0  0  0  0
  2 18  1  0  0  0  0
  3 19  1  0  0  0  0
  4 20  1  0  0  0  0
  5 21  1  0  0  0  0
  7 22  1  0  0  0  0
 10 23  1  0  0  0  0
 11 24  1  0  0  0  0
 12 25  1  0  0  0  0
 13 26  1  0  0  0  0
 17 27  1  0  0  0  0
M  END
> <Name>
1a

> <IC50[nM]>
540

$$$$
1a
  -OEChem-05192314333D
 Structure written by MMmdl.
 27 29  0     1  0  0  0  0  0999 V2000
  -15.3524  -19.2206  -25.9684 C   0  0  0  0  0  0  0  0  0  0  0  0
  -14.6526  -19.7081  -27.0823 C   0  0  0  0  0  0  0  0  0  0  0  0
  -15.8555  -20.1235  -25.0241 C   0  0  0  0  0  0  0  0  0  0  0  0
  -14.4541  -21.0636  -27.2485 C   0  0  0  0  0  0  0  0  0  0  0  0
  -15.6357  -21.4854  -25.1840 C   0  0  0  0  0  0  0  0  0  0  0  0
  -15.0526  -16.9445  -26.6871 N   0  0  0  0  0  0  0  0  0  0  0  0
  -14.9347  -21.9631  -26.2988 C   0  0  0  0  0  0  0  0  0  0  0  0
  -15.2162  -15.5610  -26.5929 C   0  0  0  0  0  0  0  0  0  0  0  0
  -15.9031  -15.0059  -25.5037 C   0  0  3  0  0  0  0  0  0  0  0  0
  -15.4462  -12.8187  -26.3599 C   0  0  0  0  0  0  0  0  0  0  0  0
  -14.7773  -13.3552  -27.4525 C   0  0  0  0  0  0  0  0  0  0  0  0
  -16.0203  -13.6235  -25.3815 C   0  0  0  0  0  0  0  0  0  0  0  0
  -14.6768  -14.7359  -27.5934 C   0  0  0  0  0  0  0  0  0  0  0  0
  -16.5313  -15.9392  -24.4895 C   0  0  0  0  0  0  0  0  0  0  0  0
  -16.2584  -17.2435  -24.7671 N   0  0  0  0  0  0  0  0  0  0  0  0
  -15.5317  -17.7669  -25.8203 C   0  0  0  0  0  0  0  0  0  0  0  0
  -17.2406  -15.6098  -23.5374 O   0  0  0  0  0  0  0  0  0  0  0  0
  -14.2658  -19.0165  -27.8162 H   0  0  0  0  0  0  0  0  0  0  0  0
  -16.4134  -19.7617  -24.1731 H   0  0  0  0  0  0  0  0  0  0  0  0
  -13.9251  -21.4282  -28.1166 H   0  0  0  0  0  0  0  0  0  0  0  0
  -16.0072  -22.1799  -24.4450 H   0  0  0  0  0  0  0  0  0  0  0  0
  -14.7676  -23.0230  -26.4216 H   0  0  0  0  0  0  0  0  0  0  0  0
  -14.9722  -14.9857  -24.9180 H   0  0  0  0  0  0  0  0  0  0  0  0
  -15.5228  -11.7454  -26.2673 H   0  0  0  0  0  0  0  0  0  0  0  0
  -14.3362  -12.7023  -28.1911 H   0  0  0  0  0  0  0  0  0  0  0  0
  -16.5455  -13.1860  -24.5453 H   0  0  0  0  0  0  0  0  0  0  0  0
  -14.1922  -15.1658  -28.4575 H   0  0  0  0  0  0  0  0  0  0  0  0
  1  2  2  0  0  0  0
  1  3  1  0  0  0  0
  1 16  1  0  0  0  0
  2  4  1  0  0  0  0
  3  5  2  0  0  0  0
  4  7  2  0  0  0  0
  5  7  1  0  0  0  0
  6  8  2  0  0  0  0
  6 16  1  0  0  0  0
  8  9  1  0  0  0  0
  8 13  1  0  0  0  0
  9 12  1  0  0  0  0
  9 14  1  0  0  0  0
 10 11  1  0  0  0  0
 10 12  2  0  0  0  0
 11 13  2  0  0  0  0
 14 15  1  0  0  0  0
 14 17  2  0  0  0  0
 15 16  2  0  0  0  0
  2 18  1  0  0  0  0
  3 19  1  0  0  0  0
  4 20  1  0  0  0  0
  5 21  1  0  0  0  0
  7 22  1  0  0  0  0
  9 23  1  0  0  0  0
 10 24  1  0  0  0  0
 11 25  1  0  0  0  0
 12 26  1  0  0  0  0
 13 27  1  0  0  0  0
M  END
> <Name>
1a

> <IC50[nM]>
540

$$$$
1a
  -OEChem-05192314333D
 Structure written by MMmdl.
 27 29  0     0  0  0  0  0  0999 V2000
  -15.3524  -19.2206  -25.9684 C   0  0  0  0  0  0  0  0  0  0  0  0
  -14.6526  -19.7081  -27.0823 C   0  0  0  0  0  0  0  0  0  0  0  0
  -15.8555  -20.1235  -25.0241 C   0  0  0  0  0  0  0  0  0  0  0  0
  -14.4541  -21.0636  -27.2485 C   0  0  0  0  0  0  0  0  0  0  0  0
  -15.6357  -21.4854  -25.1840 C   0  0  0  0  0  0  0  0  0  0  0  0
  -15.0526  -16.9445  -26.6871 N   0  0  0  0  0  0  0  0  0  0  0  0
  -14.9347  -21.9631  -26.2988 C   0  0  0  0  0  0  0  0  0  0  0  0
  -15.2162  -15.5610  -26.5929 C   0  0  0  0  0  0  0  0  0  0  0  0
  -15.9031  -15.0059  -25.5037 C   0  0  0  0  0  0  0  0  0  0  0  0
  -15.4462  -12.8187  -26.3599 C   0  0  0  0  0  0  0  0  0  0  0  0
  -14.7773  -13.3552  -27.4525 C   0  0  0  0  0  0  0  0  0  0  0  0
  -16.0203  -13.6235  -25.3815 C   0  0  0  0  0  0  0  0  0  0  0  0
  -14.6768  -14.7359  -27.5934 C   0  0  0  0  0  0  0  0  0  0  0  0
  -16.5313  -15.9392  -24.4895 C   0  0  0  0  0  0  0  0  0  0  0  0
  -16.2584  -17.2435  -24.7671 N   0  0  0  0  0  0  0  0  0  0  0  0
  -15.5317  -17.7669  -25.8203 C   0  0  0  0  0  0  0  0  0  0  0  0
  -17.2406  -15.6098  -23.5374 O   0  0  0  0  0  0  0  0  0  0  0  0
  -14.2658  -19.0165  -27.8162 H   0  0  0  0  0  0  0  0  0  0  0  0
  -16.4134  -19.7617  -24.1731 H   0  0  0  0  0  0  0  0  0  0  0  0
  -13.9251  -21.4282  -28.1166 H   0  0  0  0  0  0  0  0  0  0  0  0
  -16.0072  -22.1799  -24.4450 H   0  0  0  0  0  0  0  0  0  0  0  0
  -14.7676  -23.0230  -26.4216 H   0  0  0  0  0  0  0  0  0  0  0  0
  -14.7221  -12.1727  -25.8419 H   0  0  0  0  0  0  0  0  0  0  0  0
  -16.2604  -12.2024  -26.7690 H   0  0  0  0  0  0  0  0  0  0  0  0
  -14.3362  -12.7023  -28.1911 H   0  0  0  0  0  0  0  0  0  0  0  0
  -16.5455  -13.1860  -24.5453 H   0  0  0  0  0  0  0  0  0  0  0  0
  -14.1922  -15.1658  -28.4575 H   0  0  0  0  0  0  0  0  0  0  0  0
  1  2  2  0  0  0  0
  1  3  1  0  0  0  0
  1 16  1  0  0  0  0
  2  4  1  0  0  0  0
  3  5  2  0  0  0  0
  4  7  2  0  0  0  0
  5  7  1  0  0  0  0
  6  8  2  0  0  0  0
  6 16  1  0  0  0  0
  8  9  1  0  0  0  0
  8 13  1  0  0  0  0
  9 12  2  0  0  0  0
  9 14  1  0  0  0  0
 10 11  1  0  0  0  0
 10 12  1  0  0  0  0
 11 13  2  0  0  0  0
 14 15  1  0  0  0  0
 14 17  2  0  0  0  0
 15 16  2  0  0  0  0
  2 18  1  0  0  0  0
  3 19  1  0  0  0  0
  4 20  1  0  0  0  0
  5 21  1  0  0  0  0
  7 22  1  0  0  0  0
 10 23  1  0  0  0  0
 10 24  1  0  0  0  0
 11 25  1  0  0  0  0
 12 26  1  0  0  0  0
 13 27  1  0  0  0  0
M  END
> <Name>
1a

> <IC50[nM]>
540

$$$$
1a
  -OEChem-05192314333D
 Structure written by MMmdl.
 27 29  0     0  0  0  0  0  0999 V2000
  -15.3524  -19.2206  -25.9684 C   0  0  0  0  0  0  0  0  0  0  0  0
  -14.6526  -19.7081  -27.0823 C   0  0  0  0  0  0  0  0  0  0  0  0
  -15.8555  -20.1235  -25.0241 C   0  0  0  0  0  0  0  0  0  0  0  0
  -14.4541  -21.0636  -27.2485 C   0  0  0  0  0  0  0  0  0  0  0  0
  -15.6357  -21.4854  -25.1840 C   0  0  0  0  0  0  0  0  0  0  0  0
  -15.0526  -16.9445  -26.6871 N   0  0  0  0  0  0  0  0  0  0  0  0
  -14.9347  -21.9631  -26.2988 C   0  0  0  0  0  0  0  0  0  0  0  0
  -15.2162  -15.5610  -26.5929 C   0  0  0  0  0  0  0  0  0  0  0  0
  -15.9031  -15.0059  -25.5037 C   0  0  0  0  0  0  0  0  0  0  0  0
  -15.4462  -12.8187  -26.3599 C   0  0  0  0  0  0  0  0  0  0  0  0
  -14.7773  -13.3552  -27.4525 C   0  0  0  0  0  0  0  0  0  0  0  0
  -16.0203  -13.6235  -25.3815 C   0  0  0  0  0  0  0  0  0  0  0  0
  -14.6768  -14.7359  -27.5934 C   0  0  0  0  0  0  0  0  0  0  0  0
  -16.5313  -15.9392  -24.4895 C   0  0  0  0  0  0  0  0  0  0  0  0
  -16.2584  -17.2435  -24.7671 N   0  0  0  0  0  0  0  0  0  0  0  0
  -15.5317  -17.7669  -25.8203 C   0  0  0  0  0  0  0  0  0  0  0  0
  -17.2406  -15.6098  -23.5374 O   0  0  0  0  0  0  0  0  0  0  0  0
  -14.2658  -19.0165  -27.8162 H   0  0  0  0  0  0  0  0  0  0  0  0
  -16.4134  -19.7617  -24.1731 H   0  0  0  0  0  0  0  0  0  0  0  0
  -13.9251  -21.4282  -28.1166 H   0  0  0  0  0  0  0  0  0  0  0  0
  -16.0072  -22.1799  -24.4450 H   0  0  0  0  0  0  0  0  0  0  0  0
  -14.7676  -23.0230  -26.4216 H   0  0  0  0  0  0  0  0  0  0  0  0
  -15.5228  -11.7454  -26.2673 H   0  0  0  0  0  0  0  0  0  0  0  0
  -14.3362  -12.7023  -28.1911 H   0  0  0  0  0  0  0  0  0  0  0  0
  -16.5455  -13.1860  -24.5453 H   0  0  0  0  0  0  0  0  0  0  0  0
  -13.6058  -14.9758  -27.6672 H   0  0  0  0  0  0  0  0  0  0  0  0
  -15.1778  -15.0016  -28.5359 H   0  0  0  0  0  0  0  0  0  0  0  0
  1  2  2  0  0  0  0
  1  3  1  0  0  0  0
  1 16  1  0  0  0  0
  2  4  1  0  0  0  0
  3  5  2  0  0  0  0
  4  7  2  0  0  0  0
  5  7  1  0  0  0  0
  6  8  2  0  0  0  0
  6 16  1  0  0  0  0
  8  9  1  0  0  0  0
  8 13  1  0  0  0  0
  9 12  2  0  0  0  0
  9 14  1  0  0  0  0
 10 11  2  0  0  0  0
 10 12  1  0  0  0  0
 11 13  1  0  0  0  0
 14 15  1  0  0  0  0
 14 17  2  0  0  0  0
 15 16  2  0  0  0  0
  2 18  1  0  0  0  0
  3 19  1  0  0  0  0
  4 20  1  0  0  0  0
  5 21  1  0  0  0  0
  7 22  1  0  0  0  0
 10 23  1  0  0  0  0
 11 24  1  0  0  0  0
 12 25  1  0  0  0  0
 13 26  1  0  0  0  0
 13 27  1  0  0  0  0
M  END
> <Name>
1a

> <IC50[nM]>
540

$$$$
