3a
  -OEChem-05192314333D
 Structure written by MMmdl.
 39 41  0     0  0  0  0  0  0999 V2000
  -14.9816  -16.8848  -26.7516 N   0  0  0  0  0  0  0  0  0  0  0  0
  -15.4574  -17.7370  -25.9019 C   0  0  0  0  0  0  0  0  0  0  0  0
  -16.1716  -17.2489  -24.8288 N   0  0  0  0  0  0  0  0  0  0  0  0
  -16.4816  -15.9693  -24.5201 C   0  0  0  0  0  0  0  0  0  0  0  0
  -17.2339  -15.7049  -23.5851 O   0  0  0  0  0  0  0  0  0  0  0  0
  -15.3028  -19.1965  -26.0227 C   0  0  0  0  0  0  0  0  0  0  0  0
  -15.7965  -20.0495  -25.0297 C   0  0  0  0  0  0  0  0  0  0  0  0
  -15.5658  -21.4095  -25.0956 C   0  0  0  0  0  0  0  0  0  0  0  0
  -14.8063  -21.9515  -26.1302 C   0  0  0  0  0  0  0  0  0  0  0  0
  -14.3983  -21.1196  -27.1811 C   0  0  0  0  0  0  0  0  0  0  0  0
  -14.6397  -19.7519  -27.1232 C   0  0  0  0  0  0  0  0  0  0  0  0
  -14.3680  -23.4201  -26.0124 C   0  0  0  0  0  0  0  0  0  0  0  0
  -15.1526  -15.5000  -26.5810 C   0  0  0  0  0  0  0  0  0  0  0  0
  -15.8439  -14.9900  -25.4754 C   0  0  0  0  0  0  0  0  0  0  0  0
  -15.9352  -13.6164  -25.2666 C   0  0  0  0  0  0  0  0  0  0  0  0
  -15.3329  -12.7479  -26.1806 C   0  0  0  0  0  0  0  0  0  0  0  0
  -14.6736  -13.2481  -27.3060 C   0  0  0  0  0  0  0  0  0  0  0  0
  -14.5950  -14.6270  -27.5156 C   0  0  0  0  0  0  0  0  0  0  0  0
  -13.4015  -23.7780  -27.1663 C   0  0  0  0  0  0  0  0  0  0  0  0
  -15.6399  -24.3094  -26.0018 C   0  0  0  0  0  0  0  0  0  0  0  0
  -13.6628  -23.7212  -24.6935 C   0  0  0  0  0  0  0  0  0  0  0  0
  -16.5082  -17.9387  -24.1878 H   0  0  0  0  0  0  0  0  0  0  0  0
  -16.3623  -19.6413  -24.2053 H   0  0  0  0  0  0  0  0  0  0  0  0
  -15.9781  -22.0592  -24.3378 H   0  0  0  0  0  0  0  0  0  0  0  0
  -13.8950  -21.5420  -28.0382 H   0  0  0  0  0  0  0  0  0  0  0  0
  -14.3139  -19.1143  -27.9317 H   0  0  0  0  0  0  0  0  0  0  0  0
  -16.4646  -13.2273  -24.4094 H   0  0  0  0  0  0  0  0  0  0  0  0
  -15.3774  -11.6815  -26.0157 H   0  0  0  0  0  0  0  0  0  0  0  0
  -14.2243  -12.5682  -28.0147 H   0  0  0  0  0  0  0  0  0  0  0  0
  -14.1052  -15.0152  -28.3964 H   0  0  0  0  0  0  0  0  0  0  0  0
  -13.0932  -24.8299  -27.0742 H   0  0  0  0  0  0  0  0  0  0  0  0
  -13.9100  -23.6282  -28.1301 H   0  0  0  0  0  0  0  0  0  0  0  0
  -12.5140  -23.1301  -27.1153 H   0  0  0  0  0  0  0  0  0  0  0  0
  -15.3480  -25.3667  -25.9179 H   0  0  0  0  0  0  0  0  0  0  0  0
  -16.2722  -24.0346  -25.1446 H   0  0  0  0  0  0  0  0  0  0  0  0
  -16.2014  -24.1571  -26.9353 H   0  0  0  0  0  0  0  0  0  0  0  0
  -13.3734  -24.7821  -24.6657 H   0  0  0  0  0  0  0  0  0  0  0  0
  -12.7636  -23.0936  -24.6070 H   0  0  0  0  0  0  0  0  0  0  0  0
  -14.3429  -23.5047  -23.8565 H   0  0  0  0  0  0  0  0  0  0  0  0
  1  2  2  0  0  0  0
  1 13  1  0  0  0  0
  2  3  1  0  0  0  0
  2  6  1  0  0  0  0
  3  4  1  0  0  0  0
  4  5  2  0  0  0  0
  4 14  1  0  0  0  0
  6  7  2  0  0  0  0
  6 11  1  0  0  0  0
  7  8  1  0  0  0  0
  8  9  2  0  0  0  0
  9 10  1  0  0  0  0
  9 12  1  0  0  0  0
 10 11  2  0  0  0  0
 12 19  1  0  0  0  0
 12 20  1  0  0  0  0
 12 21  1  0  0  0  0
 13 14  2  0  0  0  0
 13 18  1  0  0  0  0
 14 15  1  0  0  0  0
 15 16  2  0  0  0  0
 16 17  1  0  0  0  0
 17 18  2  0  0  0  0
  3 22  1  0  0  0  0
  7 23  1  0  0  0  0
  8 24  1  0  0  0  0
 10 25  1  0  0  0  0
 11 26  1  0  0  0  0
 15 27  1  0  0  0  0
 16 28  1  0  0  0  0
 17 29  1  0  0  0  0
 18 30  1  0  0  0  0
 19 31  1  0  0  0  0
 19 32  1  0  0  0  0
 19 33  1  0  0  0  0
 20 34  1  0  0  0  0
 20 35  1  0  0  0  0
 20 36  1  0  0  0  0
 21 37  1  0  0  0  0
 21 38  1  0  0  0  0
 21 39  1  0  0  0  0
M  END
> <Name>
3a

> <IC50[nM]>
8.7

$$$$
3a
  -OEChem-05192314333D
 Structure written by MMmdl.
 39 41  0     0  0  0  0  0  0999 V2000
  -14.9816  -16.8848  -26.7516 N   0  0  0  0  0  0  0  0  0  0  0  0
  -15.4574  -17.7370  -25.9019 C   0  0  0  0  0  0  0  0  0  0  0  0
  -16.1716  -17.2489  -24.8288 N   0  0  0  0  0  0  0  0  0  0  0  0
  -16.4816  -15.9693  -24.5201 C   0  0  0  0  0  0  0  0  0  0  0  0
  -17.2339  -15.7049  -23.5851 O   0  0  0  0  0  0  0  0  0  0  0  0
  -15.3028  -19.1965  -26.0227 C   0  0  0  0  0  0  0  0  0  0  0  0
  -15.7965  -20.0495  -25.0297 C   0  0  0  0  0  0  0  0  0  0  0  0
  -15.5658  -21.4095  -25.0956 C   0  0  0  0  0  0  0  0  0  0  0  0
  -14.8063  -21.9515  -26.1302 C   0  0  0  0  0  0  0  0  0  0  0  0
  -14.3983  -21.1196  -27.1811 C   0  0  0  0  0  0  0  0  0  0  0  0
  -14.6397  -19.7519  -27.1232 C   0  0  0  0  0  0  0  0  0  0  0  0
  -14.3680  -23.4201  -26.0124 C   0  0  0  0  0  0  0  0  0  0  0  0
  -15.1526  -15.5000  -26.5810 C   0  0  0  0  0  0  0  0  0  0  0  0
  -15.8439  -14.9900  -25.4754 C   0  0  0  0  0  0  0  0  0  0  0  0
  -15.9352  -13.6164  -25.2666 C   0  0  0  0  0  0  0  0  0  0  0  0
  -15.3329  -12.7479  -26.1806 C   0  0  0  0  0  0  0  0  0  0  0  0
  -14.6736  -13.2481  -27.3060 C   0  0  0  0  0  0  0  0  0  0  0  0
  -14.5950  -14.6270  -27.5156 C   0  0  0  0  0  0  0  0  0  0  0  0
  -13.4015  -23.7780  -27.1663 C   0  0  0  0  0  0  0  0  0  0  0  0
  -15.6399  -24.3094  -26.0018 C   0  0  0  0  0  0  0  0  0  0  0  0
  -13.6628  -23.7212  -24.6935 C   0  0  0  0  0  0  0  0  0  0  0  0
  -14.4799  -17.2196  -27.5492 H   0  0  0  0  0  0  0  0  0  0  0  0
  -16.3623  -19.6413  -24.2053 H   0  0  0  0  0  0  0  0  0  0  0  0
  -15.9781  -22.0592  -24.3378 H   0  0  0  0  0  0  0  0  0  0  0  0
  -13.8950  -21.5420  -28.0382 H   0  0  0  0  0  0  0  0  0  0  0  0
  -14.3139  -19.1143  -27.9317 H   0  0  0  0  0  0  0  0  0  0  0  0
  -16.4646  -13.2273  -24.4094 H   0  0  0  0  0  0  0  0  0  0  0  0
  -15.3774  -11.6815  -26.0157 H   0  0  0  0  0  0  0  0  0  0  0  0
  -14.2243  -12.5682  -28.0147 H   0  0  0  0  0  0  0  0  0  0  0  0
  -14.1052  -15.0152  -28.3964 H   0  0  0  0  0  0  0  0  0  0  0  0
  -13.0932  -24.8299  -27.0742 H   0  0  0  0  0  0  0  0  0  0  0  0
  -13.9100  -23.6282  -28.1301 H   0  0  0  0  0  0  0  0  0  0  0  0
  -12.5140  -23.1301  -27.1153 H   0  0  0  0  0  0  0  0  0  0  0  0
  -15.3480  -25.3667  -25.9179 H   0  0  0  0  0  0  0  0  0  0  0  0
  -16.2722  -24.0346  -25.1446 H   0  0  0  0  0  0  0  0  0  0  0  0
  -16.2014  -24.1571  -26.9353 H   0  0  0  0  0  0  0  0  0  0  0  0
  -13.3734  -24.7821  -24.6657 H   0  0  0  0  0  0  0  0  0  0  0  0
  -12.7636  -23.0936  -24.6070 H   0  0  0  0  0  0  0  0  0  0  0  0
  -14.3429  -23.5047  -23.8565 H   0  0  0  0  0  0  0  0  0  0  0  0
  1  2  1  0  0  0  0
  1 13  1  0  0  0  0
  2  3  2  0  0  0  0
  2  6  1  0  0  0  0
  3  4  1  0  0  0  0
  4  5  2  0  0  0  0
  4 14  1  0  0  0  0
  6  7  2  0  0  0  0
  6 11  1  0  0  0  0
  7  8  1  0  0  0  0
  8  9  2  0  0  0  0
  9 10  1  0  0  0  0
  9 12  1  0  0  0  0
 10 11  2  0  0  0  0
 12 19  1  0  0  0  0
 12 20  1  0  0  0  0
 12 21  1  0  0  0  0
 13 14  2  0  0  0  0
 13 18  1  0  0  0  0
 14 15  1  0  0  0  0
 15 16  2  0  0  0  0
 16 17  1  0  0  0  0
 17 18  2  0  0  0  0
  1 22  1  0  0  0  0
  7 23  1  0  0  0  0
  8 24  1  0  0  0  0
 10 25  1  0  0  0  0
 11 26  1  0  0  0  0
 15 27  1  0  0  0  0
 16 28  1  0  0  0  0
 17 29  1  0  0  0  0
 18 30  1  0  0  0  0
 19 31  1  0  0  0  0
 19 32  1  0  0  0  0
 19 33  1  0  0  0  0
 20 34  1  0  0  0  0
 20 35  1  0  0  0  0
 20 36  1  0  0  0  0
 21 37  1  0  0  0  0
 21 38  1  0  0  0  0
 21 39  1  0  0  0  0
M  END
> <Name>
3a

> <IC50[nM]>
8.7

$$$$
3a
  -OEChem-05192314333D
 Structure written by MMmdl.
 39 41  0     0  0  0  0  0  0999 V2000
  -14.9816  -16.8848  -26.7516 N   0  0  0  0  0  0  0  0  0  0  0  0
  -15.4574  -17.7370  -25.9019 C   0  0  0  0  0  0  0  0  0  0  0  0
  -16.1716  -17.2489  -24.8288 N   0  0  0  0  0  0  0  0  0  0  0  0
  -16.4816  -15.9693  -24.5201 C   0  0  0  0  0  0  0  0  0  0  0  0
  -17.2339  -15.7049  -23.5851 O   0  0  0  0  0  0  0  0  0  0  0  0
  -15.3028  -19.1965  -26.0227 C   0  0  0  0  0  0  0  0  0  0  0  0
  -15.7965  -20.0495  -25.0297 C   0  0  0  0  0  0  0  0  0  0  0  0
  -15.5658  -21.4095  -25.0956 C   0  0  0  0  0  0  0  0  0  0  0  0
  -14.8063  -21.9515  -26.1302 C   0  0  0  0  0  0  0  0  0  0  0  0
  -14.3983  -21.1196  -27.1811 C   0  0  0  0  0  0  0  0  0  0  0  0
  -14.6397  -19.7519  -27.1232 C   0  0  0  0  0  0  0  0  0  0  0  0
  -14.3680  -23.4201  -26.0124 C   0  0  0  0  0  0  0  0  0  0  0  0
  -15.1526  -15.5000  -26.5810 C   0  0  0  0  0  0  0  0  0  0  0  0
  -15.8439  -14.9900  -25.4754 C   0  0  0  0  0  0  0  0  0  0  0  0
  -15.9352  -13.6164  -25.2666 C   0  0  0  0  0  0  0  0  0  0  0  0
  -15.3329  -12.7479  -26.1806 C   0  0  0  0  0  0  0  0  0  0  0  0
  -14.6736  -13.2481  -27.3060 C   0  0  0  0  0  0  0  0  0  0  0  0
  -14.5950  -14.6270  -27.5156 C   0  0  0  0  0  0  0  0  0  0  0  0
  -13.4015  -23.7780  -27.1663 C   0  0  0  0  0  0  0  0  0  0  0  0
  -15.6399  -24.3094  -26.0018 C   0  0  0  0  0  0  0  0  0  0  0  0
  -13.6628  -23.7212  -24.6935 C   0  0  0  0  0  0  0  0  0  0  0  0
  -17.5198  -16.5105  -23.1705 H   0  0  0  0  0  0  0  0  0  0  0  0
  -16.3623  -19.6413  -24.2053 H   0  0  0  0  0  0  0  0  0  0  0  0
  -15.9781  -22.0592  -24.3378 H   0  0  0  0  0  0  0  0  0  0  0  0
  -13.8950  -21.5420  -28.0382 H   0  0  0  0  0  0  0  0  0  0  0  0
  -14.3139  -19.1143  -27.9317 H   0  0  0  0  0  0  0  0  0  0  0  0
  -16.4646  -13.2273  -24.4094 H   0  0  0  0  0  0  0  0  0  0  0  0
  -15.3774  -11.6815  -26.0157 H   0  0  0  0  0  0  0  0  0  0  0  0
  -14.2243  -12.5682  -28.0147 H   0  0  0  0  0  0  0  0  0  0  0  0
  -14.1052  -15.0152  -28.3964 H   0  0  0  0  0  0  0  0  0  0  0  0
  -13.0932  -24.8299  -27.0742 H   0  0  0  0  0  0  0  0  0  0  0  0
  -13.9100  -23.6282  -28.1301 H   0  0  0  0  0  0  0  0  0  0  0  0
  -12.5140  -23.1301  -27.1153 H   0  0  0  0  0  0  0  0  0  0  0  0
  -15.3480  -25.3667  -25.9179 H   0  0  0  0  0  0  0  0  0  0  0  0
  -16.2722  -24.0346  -25.1446 H   0  0  0  0  0  0  0  0  0  0  0  0
  -16.2014  -24.1571  -26.9353 H   0  0  0  0  0  0  0  0  0  0  0  0
  -13.3734  -24.7821  -24.6657 H   0  0  0  0  0  0  0  0  0  0  0  0
  -12.7636  -23.0936  -24.6070 H   0  0  0  0  0  0  0  0  0  0  0  0
  -14.3429  -23.5047  -23.8565 H   0  0  0  0  0  0  0  0  0  0  0  0
  1  2  2  0  0  0  0
  1 13  1  0  0  0  0
  2  3  1  0  0  0  0
  2  6  1  0  0  0  0
  3  4  2  0  0  0  0
  4  5  1  0  0  0  0
  4 14  1  0  0  0  0
  6  7  2  0  0  0  0
  6 11  1  0  0  0  0
  7  8  1  0  0  0  0
  8  9  2  0  0  0  0
  9 10  1  0  0  0  0
  9 12  1  0  0  0  0
 10 11  2  0  0  0  0
 12 19  1  0  0  0  0
 12 20  1  0  0  0  0
 12 21  1  0  0  0  0
 13 14  2  0  0  0  0
 13 18  1  0  0  0  0
 14 15  1  0  0  0  0
 15 16  2  0  0  0  0
 16 17  1  0  0  0  0
 17 18  2  0  0  0  0
  5 22  1  0  0  0  0
  7 23  1  0  0  0  0
  8 24  1  0  0  0  0
 10 25  1  0  0  0  0
 11 26  1  0  0  0  0
 15 27  1  0  0  0  0
 16 28  1  0  0  0  0
 17 29  1  0  0  0  0
 18 30  1  0  0  0  0
 19 31  1  0  0  0  0
 19 32  1  0  0  0  0
 19 33  1  0  0  0  0
 20 34  1  0  0  0  0
 20 35  1  0  0  0  0
 20 36  1  0  0  0  0
 21 37  1  0  0  0  0
 21 38  1  0  0  0  0
 21 39  1  0  0  0  0
M  END
> <Name>
3a

> <IC50[nM]>
8.7

$$$$
3a
  -OEChem-05192314333D
 Structure written by MMmdl.
 39 41  0     1  0  0  0  0  0999 V2000
  -14.9816  -16.8848  -26.7516 N   0  0  0  0  0  0  0  0  0  0  0  0
  -15.4574  -17.7370  -25.9019 C   0  0  0  0  0  0  0  0  0  0  0  0
  -16.1716  -17.2489  -24.8288 N   0  0  0  0  0  0  0  0  0  0  0  0
  -16.4816  -15.9693  -24.5201 C   0  0  0  0  0  0  0  0  0  0  0  0
  -17.2339  -15.7049  -23.5851 O   0  0  0  0  0  0  0  0  0  0  0  0
  -15.3028  -19.1965  -26.0227 C   0  0  0  0  0  0  0  0  0  0  0  0
  -15.7965  -20.0495  -25.0297 C   0  0  0  0  0  0  0  0  0  0  0  0
  -15.5658  -21.4095  -25.0956 C   0  0  0  0  0  0  0  0  0  0  0  0
  -14.8063  -21.9515  -26.1302 C   0  0  0  0  0  0  0  0  0  0  0  0
  -14.3983  -21.1196  -27.1811 C   0  0  0  0  0  0  0  0  0  0  0  0
  -14.6397  -19.7519  -27.1232 C   0  0  0  0  0  0  0  0  0  0  0  0
  -14.3680  -23.4201  -26.0124 C   0  0  0  0  0  0  0  0  0  0  0  0
  -15.1526  -15.5000  -26.5810 C   0  0  0  0  0  0  0  0  0  0  0  0
  -15.8439  -14.9900  -25.4754 C   0  0  3  0  0  0  0  0  0  0  0  0
  -15.9352  -13.6164  -25.2666 C   0  0  0  0  0  0  0  0  0  0  0  0
  -15.3329  -12.7479  -26.1806 C   0  0  0  0  0  0  0  0  0  0  0  0
  -14.6736  -13.2481  -27.3060 C   0  0  0  0  0  0  0  0  0  0  0  0
  -14.5950  -14.6270  -27.5156 C   0  0  0  0  0  0  0  0  0  0  0  0
  -13.4015  -23.7780  -27.1663 C   0  0  0  0  0  0  0  0  0  0  0  0
  -15.6399  -24.3094  -26.0018 C   0  0  0  0  0  0  0  0  0  0  0  0
  -13.6628  -23.7212  -24.6935 C   0  0  0  0  0  0  0  0  0  0  0  0
  -16.3623  -19.6413  -24.2053 H   0  0  0  0  0  0  0  0  0  0  0  0
  -15.9781  -22.0592  -24.3378 H   0  0  0  0  0  0  0  0  0  0  0  0
  -13.8950  -21.5420  -28.0382 H   0  0  0  0  0  0  0  0  0  0  0  0
  -14.3139  -19.1143  -27.9317 H   0  0  0  0  0  0  0  0  0  0  0  0
  -16.7709  -14.9624  -26.0669 H   0  0  0  0  0  0  0  0  0  0  0  0
  -16.4646  -13.2273  -24.4094 H   0  0  0  0  0  0  0  0  0  0  0  0
  -15.3774  -11.6815  -26.0157 H   0  0  0  0  0  0  0  0  0  0  0  0
  -14.2243  -12.5682  -28.0147 H   0  0  0  0  0  0  0  0  0  0  0  0
  -14.1052  -15.0152  -28.3964 H   0  0  0  0  0  0  0  0  0  0  0  0
  -13.0932  -24.8299  -27.0742 H   0  0  0  0  0  0  0  0  0  0  0  0
  -13.9100  -23.6282  -28.1301 H   0  0  0  0  0  0  0  0  0  0  0  0
  -12.5140  -23.1301  -27.1153 H   0  0  0  0  0  0  0  0  0  0  0  0
  -15.3480  -25.3667  -25.9179 H   0  0  0  0  0  0  0  0  0  0  0  0
  -16.2722  -24.0346  -25.1446 H   0  0  0  0  0  0  0  0  0  0  0  0
  -16.2014  -24.1571  -26.9353 H   0  0  0  0  0  0  0  0  0  0  0  0
  -13.3734  -24.7821  -24.6657 H   0  0  0  0  0  0  0  0  0  0  0  0
  -12.7636  -23.0936  -24.6070 H   0  0  0  0  0  0  0  0  0  0  0  0
  -14.3429  -23.5047  -23.8565 H   0  0  0  0  0  0  0  0  0  0  0  0
  1  2  1  0  0  0  0
  1 13  2  0  0  0  0
  2  3  2  0  0  0  0
  2  6  1  0  0  0  0
  3  4  1  0  0  0  0
  4  5  2  0  0  0  0
  4 14  1  0  0  0  0
  6  7  2  0  0  0  0
  6 11  1  0  0  0  0
  7  8  1  0  0  0  0
  8  9  2  0  0  0  0
  9 10  1  0  0  0  0
  9 12  1  0  0  0  0
 10 11  2  0  0  0  0
 12 19  1  0  0  0  0
 12 20  1  0  0  0  0
 12 21  1  0  0  0  0
 13 14  1  0  0  0  0
 13 18  1  0  0  0  0
 14 15  1  0  0  0  0
 15 16  2  0  0  0  0
 16 17  1  0  0  0  0
 17 18  2  0  0  0  0
  7 22  1  0  0  0  0
  8 23  1  0  0  0  0
 10 24  1  0  0  0  0
 11 25  1  0  0  0  0
 14 26  1  0  0  0  0
 15 27  1  0  0  0  0
 16 28  1  0  0  0  0
 17 29  1  0  0  0  0
 18 30  1  0  0  0  0
 19 31  1  0  0  0  0
 19 32  1  0  0  0  0
 19 33  1  0  0  0  0
 20 34  1  0  0  0  0
 20 35  1  0  0  0  0
 20 36  1  0  0  0  0
 21 37  1  0  0  0  0
 21 38  1  0  0  0  0
 21 39  1  0  0  0  0
M  END
> <Name>
3a

> <IC50[nM]>
8.7

$$$$
3a
  -OEChem-05192314333D
 Structure written by MMmdl.
 39 41  0     0  0  0  0  0  0999 V2000
  -14.9816  -16.8848  -26.7516 N   0  0  0  0  0  0  0  0  0  0  0  0
  -15.4574  -17.7370  -25.9019 C   0  0  0  0  0  0  0  0  0  0  0  0
  -16.1716  -17.2489  -24.8288 N   0  0  0  0  0  0  0  0  0  0  0  0
  -16.4816  -15.9693  -24.5201 C   0  0  0  0  0  0  0  0  0  0  0  0
  -17.2339  -15.7049  -23.5851 O   0  0  0  0  0  0  0  0  0  0  0  0
  -15.3028  -19.1965  -26.0227 C   0  0  0  0  0  0  0  0  0  0  0  0
  -15.7965  -20.0495  -25.0297 C   0  0  0  0  0  0  0  0  0  0  0  0
  -15.5658  -21.4095  -25.0956 C   0  0  0  0  0  0  0  0  0  0  0  0
  -14.8063  -21.9515  -26.1302 C   0  0  0  0  0  0  0  0  0  0  0  0
  -14.3983  -21.1196  -27.1811 C   0  0  0  0  0  0  0  0  0  0  0  0
  -14.6397  -19.7519  -27.1232 C   0  0  0  0  0  0  0  0  0  0  0  0
  -14.3680  -23.4201  -26.0124 C   0  0  0  0  0  0  0  0  0  0  0  0
  -15.1526  -15.5000  -26.5810 C   0  0  0  0  0  0  0  0  0  0  0  0
  -15.8439  -14.9900  -25.4754 C   0  0  0  0  0  0  0  0  0  0  0  0
  -15.9352  -13.6164  -25.2666 C   0  0  0  0  0  0  0  0  0  0  0  0
  -15.3329  -12.7479  -26.1806 C   0  0  0  0  0  0  0  0  0  0  0  0
  -14.6736  -13.2481  -27.3060 C   0  0  0  0  0  0  0  0  0  0  0  0
  -14.5950  -14.6270  -27.5156 C   0  0  0  0  0  0  0  0  0  0  0  0
  -13.4015  -23.7780  -27.1663 C   0  0  0  0  0  0  0  0  0  0  0  0
  -15.6399  -24.3094  -26.0018 C   0  0  0  0  0  0  0  0  0  0  0  0
  -13.6628  -23.7212  -24.6935 C   0  0  0  0  0  0  0  0  0  0  0  0
  -16.3623  -19.6413  -24.2053 H   0  0  0  0  0  0  0  0  0  0  0  0
  -15.9781  -22.0592  -24.3378 H   0  0  0  0  0  0  0  0  0  0  0  0
  -13.8950  -21.5420  -28.0382 H   0  0  0  0  0  0  0  0  0  0  0  0
  -14.3139  -19.1143  -27.9317 H   0  0  0  0  0  0  0  0  0  0  0  0
  -16.4646  -13.2273  -24.4094 H   0  0  0  0  0  0  0  0  0  0  0  0
  -16.1254  -12.0806  -26.5504 H   0  0  0  0  0  0  0  0  0  0  0  0
  -14.5928  -12.1610  -25.6168 H   0  0  0  0  0  0  0  0  0  0  0  0
  -14.2243  -12.5682  -28.0147 H   0  0  0  0  0  0  0  0  0  0  0  0
  -14.1052  -15.0152  -28.3964 H   0  0  0  0  0  0  0  0  0  0  0  0
  -13.0932  -24.8299  -27.0742 H   0  0  0  0  0  0  0  0  0  0  0  0
  -13.9100  -23.6282  -28.1301 H   0  0  0  0  0  0  0  0  0  0  0  0
  -12.5140  -23.1301  -27.1153 H   0  0  0  0  0  0  0  0  0  0  0  0
  -15.3480  -25.3667  -25.9179 H   0  0  0  0  0  0  0  0  0  0  0  0
  -16.2722  -24.0346  -25.1446 H   0  0  0  0  0  0  0  0  0  0  0  0
  -16.2014  -24.1571  -26.9353 H   0  0  0  0  0  0  0  0  0  0  0  0
  -13.3734  -24.7821  -24.6657 H   0  0  0  0  0  0  0  0  0  0  0  0
  -12.7636  -23.0936  -24.6070 H   0  0  0  0  0  0  0  0  0  0  0  0
  -14.3429  -23.5047  -23.8565 H   0  0  0  0  0  0  0  0  0  0  0  0
  1  2  1  0  0  0  0
  1 13  2  0  0  0  0
  2  3  2  0  0  0  0
  2  6  1  0  0  0  0
  3  4  1  0  0  0  0
  4  5  2  0  0  0  0
  4 14  1  0  0  0  0
  6  7  2  0  0  0  0
  6 11  1  0  0  0  0
  7  8  1  0  0  0  0
  8  9  2  0  0  0  0
  9 10  1  0  0  0  0
  9 12  1  0  0  0  0
 10 11  2  0  0  0  0
 12 19  1  0  0  0  0
 12 20  1  0  0  0  0
 12 21  1  0  0  0  0
 13 14  1  0  0  0  0
 13 18  1  0  0  0  0
 14 15  2  0  0  0  0
 15 16  1  0  0  0  0
 16 17  1  0  0  0  0
 17 18  2  0  0  0  0
  7 22  1  0  0  0  0
  8 23  1  0  0  0  0
 10 24  1  0  0  0  0
 11 25  1  0  0  0  0
 15 26  1  0  0  0  0
 16 27  1  0  0  0  0
 16 28  1  0  0  0  0
 17 29  1  0  0  0  0
 18 30  1  0  0  0  0
 19 31  1  0  0  0  0
 19 32  1  0  0  0  0
 19 33  1  0  0  0  0
 20 34  1  0  0  0  0
 20 35  1  0  0  0  0
 20 36  1  0  0  0  0
 21 37  1  0  0  0  0
 21 38  1  0  0  0  0
 21 39  1  0  0  0  0
M  END
> <Name>
3a

> <IC50[nM]>
8.7

$$$$
3a
  -OEChem-05192314333D
 Structure written by MMmdl.
 39 41  0     0  0  0  0  0  0999 V2000
  -14.9816  -16.8848  -26.7516 N   0  0  0  0  0  0  0  0  0  0  0  0
  -15.4574  -17.7370  -25.9019 C   0  0  0  0  0  0  0  0  0  0  0  0
  -16.1716  -17.2489  -24.8288 N   0  0  0  0  0  0  0  0  0  0  0  0
  -16.4816  -15.9693  -24.5201 C   0  0  0  0  0  0  0  0  0  0  0  0
  -17.2339  -15.7049  -23.5851 O   0  0  0  0  0  0  0  0  0  0  0  0
  -15.3028  -19.1965  -26.0227 C   0  0  0  0  0  0  0  0  0  0  0  0
  -15.7965  -20.0495  -25.0297 C   0  0  0  0  0  0  0  0  0  0  0  0
  -15.5658  -21.4095  -25.0956 C   0  0  0  0  0  0  0  0  0  0  0  0
  -14.8063  -21.9515  -26.1302 C   0  0  0  0  0  0  0  0  0  0  0  0
  -14.3983  -21.1196  -27.1811 C   0  0  0  0  0  0  0  0  0  0  0  0
  -14.6397  -19.7519  -27.1232 C   0  0  0  0  0  0  0  0  0  0  0  0
  -14.3680  -23.4201  -26.0124 C   0  0  0  0  0  0  0  0  0  0  0  0
  -15.1526  -15.5000  -26.5810 C   0  0  0  0  0  0  0  0  0  0  0  0
  -15.8439  -14.9900  -25.4754 C   0  0  0  0  0  0  0  0  0  0  0  0
  -15.9352  -13.6164  -25.2666 C   0  0  0  0  0  0  0  0  0  0  0  0
  -15.3329  -12.7479  -26.1806 C   0  0  0  0  0  0  0  0  0  0  0  0
  -14.6736  -13.2481  -27.3060 C   0  0  0  0  0  0  0  0  0  0  0  0
  -14.5950  -14.6270  -27.5156 C   0  0  0  0  0  0  0  0  0  0  0  0
  -13.4015  -23.7780  -27.1663 C   0  0  0  0  0  0  0  0  0  0  0  0
  -15.6399  -24.3094  -26.0018 C   0  0  0  0  0  0  0  0  0  0  0  0
  -13.6628  -23.7212  -24.6935 C   0  0  0  0  0  0  0  0  0  0  0  0
  -16.3623  -19.6413  -24.2053 H   0  0  0  0  0  0  0  0  0  0  0  0
  -15.9781  -22.0592  -24.3378 H   0  0  0  0  0  0  0  0  0  0  0  0
  -13.8950  -21.5420  -28.0382 H   0  0  0  0  0  0  0  0  0  0  0  0
  -14.3139  -19.1143  -27.9317 H   0  0  0  0  0  0  0  0  0  0  0  0
  -16.4646  -13.2273  -24.4094 H   0  0  0  0  0  0  0  0  0  0  0  0
  -15.3774  -11.6815  -26.0157 H   0  0  0  0  0  0  0  0  0  0  0  0
  -14.2243  -12.5682  -28.0147 H   0  0  0  0  0  0  0  0  0  0  0  0
  -13.5266  -14.8783  -27.5895 H   0  0  0  0  0  0  0  0  0  0  0  0
  -15.0873  -14.8322  -28.4776 H   0  0  0  0  0  0  0  0  0  0  0  0
  -13.0932  -24.8299  -27.0742 H   0  0  0  0  0  0  0  0  0  0  0  0
  -13.9100  -23.6282  -28.1301 H   0  0  0  0  0  0  0  0  0  0  0  0
  -12.5140  -23.1301  -27.1153 H   0  0  0  0  0  0  0  0  0  0  0  0
  -15.3480  -25.3667  -25.9179 H   0  0  0  0  0  0  0  0  0  0  0  0
  -16.2722  -24.0346  -25.1446 H   0  0  0  0  0  0  0  0  0  0  0  0
  -16.2014  -24.1571  -26.9353 H   0  0  0  0  0  0  0  0  0  0  0  0
  -13.3734  -24.7821  -24.6657 H   0  0  0  0  0  0  0  0  0  0  0  0
  -12.7636  -23.0936  -24.6070 H   0  0  0  0  0  0  0  0  0  0  0  0
  -14.3429  -23.5047  -23.8565 H   0  0  0  0  0  0  0  0  0  0  0  0
  1  2  1  0  0  0  0
  1 13  2  0  0  0  0
  2  3  2  0  0  0  0
  2  6  1  0  0  0  0
  3  4  1  0  0  0  0
  4  5  2  0  0  0  0
  4 14  1  0  0  0  0
  6  7  2  0  0  0  0
  6 11  1  0  0  0  0
  7  8  1  0  0  0  0
  8  9  2  0  0  0  0
  9 10  1  0  0  0  0
  9 12  1  0  0  0  0
 10 11  2  0  0  0  0
 12 19  1  0  0  0  0
 12 20  1  0  0  0  0
 12 21  1  0  0  0  0
 13 14  1  0  0  0  0
 13 18  1  0  0  0  0
 14 15  2  0  0  0  0
 15 16  1  0  0  0  0
 16 17  2  0  0  0  0
 17 18  1  0  0  0  0
  7 22  1  0  0  0  0
  8 23  1  0  0  0  0
 10 24  1  0  0  0  0
 11 25  1  0  0  0  0
 15 26  1  0  0  0  0
 16 27  1  0  0  0  0
 17 28  1  0  0  0  0
 18 29  1  0  0  0  0
 18 30  1  0  0  0  0
 19 31  1  0  0  0  0
 19 32  1  0  0  0  0
 19 33  1  0  0  0  0
 20 34  1  0  0  0  0
 20 35  1  0  0  0  0
 20 36  1  0  0  0  0
 21 37  1  0  0  0  0
 21 38  1  0  0  0  0
 21 39  1  0  0  0  0
M  END
> <Name>
3a

> <IC50[nM]>
8.7

$$$$
