5h
  -OEChem-05192314333D
 Structure written by MMmdl.
 41 43  0     0  0  0  0  0  0999 V2000
  -14.6321  -14.6131  -27.5789 C   0  0  0  0  0  0  0  0  0  0  0  0
  -15.1582  -15.4760  -26.5985 C   0  0  0  0  0  0  0  0  0  0  0  0
  -14.7198  -13.2263  -27.3566 C   0  0  0  0  0  0  0  0  0  0  0  0
  -15.8099  -14.9532  -25.4732 C   0  0  0  0  0  0  0  0  0  0  0  0
  -15.0163  -16.8727  -26.7418 N   0  0  0  0  0  0  0  0  0  0  0  0
  -15.3338  -12.7191  -26.2121 C   0  0  0  0  0  0  0  0  0  0  0  0
  -15.8975  -13.5773  -25.2707 C   0  0  0  0  0  0  0  0  0  0  0  0
  -16.4124  -15.9145  -24.4748 C   0  0  0  0  0  0  0  0  0  0  0  0
  -16.0704  -17.2031  -24.7417 N   0  0  0  0  0  0  0  0  0  0  0  0
  -17.1581  -15.6132  -23.5452 O   0  0  0  0  0  0  0  0  0  0  0  0
  -15.4259  -17.7159  -25.8489 C   0  0  0  0  0  0  0  0  0  0  0  0
  -15.2670  -19.1828  -25.9921 C   0  0  0  0  0  0  0  0  0  0  0  0
  -14.6478  -19.7009  -27.1380 C   0  0  0  0  0  0  0  0  0  0  0  0
  -14.4645  -21.0679  -27.2901 C   0  0  0  0  0  0  0  0  0  0  0  0
  -14.8926  -21.9587  -26.3028 C   0  0  0  0  0  0  0  0  0  0  0  0
  -15.5322  -21.4499  -25.1653 C   0  0  0  0  0  0  0  0  0  0  0  0
  -15.7215  -20.0777  -25.0122 C   0  0  0  0  0  0  0  0  0  0  0  0
  -14.5807  -23.4613  -26.4256 C   0  0  0  0  0  0  0  0  0  0  0  0
  -14.2589  -23.8828  -27.7351 O   0  0  0  0  0  0  0  0  0  0  0  0
  -15.7774  -24.3541  -26.0965 C   0  0  0  0  0  0  0  0  0  0  0  0
  -13.3649  -23.7811  -25.5544 C   0  0  0  0  0  0  0  0  0  0  0  0
  -14.0089  -15.1610  -28.6904 O   0  0  0  0  0  0  0  0  0  0  0  0
  -13.4790  -14.2957  -29.6929 C   0  0  0  0  0  0  0  0  0  0  0  0
  -14.3050  -12.5441  -28.0839 H   0  0  0  0  0  0  0  0  0  0  0  0
  -15.3727  -11.6514  -26.0541 H   0  0  0  0  0  0  0  0  0  0  0  0
  -16.3949  -13.1823  -24.3972 H   0  0  0  0  0  0  0  0  0  0  0  0
  -16.3200  -17.8703  -24.0399 H   0  0  0  0  0  0  0  0  0  0  0  0
  -14.3093  -19.0279  -27.9119 H   0  0  0  0  0  0  0  0  0  0  0  0
  -13.9859  -21.4471  -28.1809 H   0  0  0  0  0  0  0  0  0  0  0  0
  -15.8818  -22.1270  -24.4000 H   0  0  0  0  0  0  0  0  0  0  0  0
  -16.2219  -19.7005  -24.1326 H   0  0  0  0  0  0  0  0  0  0  0  0
  -14.0797  -24.8157  -27.7329 H   0  0  0  0  0  0  0  0  0  0  0  0
  -15.4881  -25.4100  -26.2032 H   0  0  0  0  0  0  0  0  0  0  0  0
  -16.1019  -24.1656  -25.0625 H   0  0  0  0  0  0  0  0  0  0  0  0
  -16.6036  -24.1289  -26.7869 H   0  0  0  0  0  0  0  0  0  0  0  0
  -13.1294  -24.8528  -25.6318 H   0  0  0  0  0  0  0  0  0  0  0  0
  -12.5026  -23.1906  -25.8975 H   0  0  0  0  0  0  0  0  0  0  0  0
  -13.5881  -23.5296  -24.5071 H   0  0  0  0  0  0  0  0  0  0  0  0
  -13.0248  -14.8970  -30.4943 H   0  0  0  0  0  0  0  0  0  0  0  0
  -14.2889  -13.6798  -30.1109 H   0  0  0  0  0  0  0  0  0  0  0  0
  -12.7147  -13.6425  -29.2466 H   0  0  0  0  0  0  0  0  0  0  0  0
  1  2  2  0  0  0  0
  1  3  1  0  0  0  0
  1 22  1  0  0  0  0
  2  4  1  0  0  0  0
  2  5  1  0  0  0  0
  3  6  2  0  0  0  0
  4  7  2  0  0  0  0
  4  8  1  0  0  0  0
  5 11  2  0  0  0  0
  6  7  1  0  0  0  0
  8  9  1  0  0  0  0
  8 10  2  0  0  0  0
  9 11  1  0  0  0  0
 11 12  1  0  0  0  0
 12 13  2  0  0  0  0
 12 17  1  0  0  0  0
 13 14  1  0  0  0  0
 14 15  2  0  0  0  0
 15 16  1  0  0  0  0
 15 18  1  0  0  0  0
 16 17  2  0  0  0  0
 18 19  1  0  0  0  0
 18 20  1  0  0  0  0
 18 21  1  0  0  0  0
 22 23  1  0  0  0  0
  3 24  1  0  0  0  0
  6 25  1  0  0  0  0
  7 26  1  0  0  0  0
  9 27  1  0  0  0  0
 13 28  1  0  0  0  0
 14 29  1  0  0  0  0
 16 30  1  0  0  0  0
 17 31  1  0  0  0  0
 19 32  1  0  0  0  0
 20 33  1  0  0  0  0
 20 34  1  0  0  0  0
 20 35  1  0  0  0  0
 21 36  1  0  0  0  0
 21 37  1  0  0  0  0
 21 38  1  0  0  0  0
 23 39  1  0  0  0  0
 23 40  1  0  0  0  0
 23 41  1  0  0  0  0
M  END
> <Name>
5h

> <IC50[nM]>
43

$$$$
5h
  -OEChem-05192314333D
 Structure written by MMmdl.
 41 43  0     0  0  0  0  0  0999 V2000
  -14.6321  -14.6131  -27.5789 C   0  0  0  0  0  0  0  0  0  0  0  0
  -15.1582  -15.4760  -26.5985 C   0  0  0  0  0  0  0  0  0  0  0  0
  -14.7198  -13.2263  -27.3566 C   0  0  0  0  0  0  0  0  0  0  0  0
  -15.8099  -14.9532  -25.4732 C   0  0  0  0  0  0  0  0  0  0  0  0
  -15.0163  -16.8727  -26.7418 N   0  0  0  0  0  0  0  0  0  0  0  0
  -15.3338  -12.7191  -26.2121 C   0  0  0  0  0  0  0  0  0  0  0  0
  -15.8975  -13.5773  -25.2707 C   0  0  0  0  0  0  0  0  0  0  0  0
  -16.4124  -15.9145  -24.4748 C   0  0  0  0  0  0  0  0  0  0  0  0
  -16.0704  -17.2031  -24.7417 N   0  0  0  0  0  0  0  0  0  0  0  0
  -17.1581  -15.6132  -23.5452 O   0  0  0  0  0  0  0  0  0  0  0  0
  -15.4259  -17.7159  -25.8489 C   0  0  0  0  0  0  0  0  0  0  0  0
  -15.2670  -19.1828  -25.9921 C   0  0  0  0  0  0  0  0  0  0  0  0
  -14.6478  -19.7009  -27.1380 C   0  0  0  0  0  0  0  0  0  0  0  0
  -14.4645  -21.0679  -27.2901 C   0  0  0  0  0  0  0  0  0  0  0  0
  -14.8926  -21.9587  -26.3028 C   0  0  0  0  0  0  0  0  0  0  0  0
  -15.5322  -21.4499  -25.1653 C   0  0  0  0  0  0  0  0  0  0  0  0
  -15.7215  -20.0777  -25.0122 C   0  0  0  0  0  0  0  0  0  0  0  0
  -14.5807  -23.4613  -26.4256 C   0  0  0  0  0  0  0  0  0  0  0  0
  -14.2589  -23.8828  -27.7351 O   0  0  0  0  0  0  0  0  0  0  0  0
  -15.7774  -24.3541  -26.0965 C   0  0  0  0  0  0  0  0  0  0  0  0
  -13.3649  -23.7811  -25.5544 C   0  0  0  0  0  0  0  0  0  0  0  0
  -14.0089  -15.1610  -28.6904 O   0  0  0  0  0  0  0  0  0  0  0  0
  -13.4790  -14.2957  -29.6929 C   0  0  0  0  0  0  0  0  0  0  0  0
  -14.3050  -12.5441  -28.0839 H   0  0  0  0  0  0  0  0  0  0  0  0
  -14.5803  -17.2266  -27.5692 H   0  0  0  0  0  0  0  0  0  0  0  0
  -15.3727  -11.6514  -26.0541 H   0  0  0  0  0  0  0  0  0  0  0  0
  -16.3949  -13.1823  -24.3972 H   0  0  0  0  0  0  0  0  0  0  0  0
  -14.3093  -19.0279  -27.9119 H   0  0  0  0  0  0  0  0  0  0  0  0
  -13.9859  -21.4471  -28.1809 H   0  0  0  0  0  0  0  0  0  0  0  0
  -15.8818  -22.1270  -24.4000 H   0  0  0  0  0  0  0  0  0  0  0  0
  -16.2219  -19.7005  -24.1326 H   0  0  0  0  0  0  0  0  0  0  0  0
  -14.0797  -24.8157  -27.7329 H   0  0  0  0  0  0  0  0  0  0  0  0
  -15.4881  -25.4100  -26.2032 H   0  0  0  0  0  0  0  0  0  0  0  0
  -16.1019  -24.1656  -25.0625 H   0  0  0  0  0  0  0  0  0  0  0  0
  -16.6036  -24.1289  -26.7869 H   0  0  0  0  0  0  0  0  0  0  0  0
  -13.1294  -24.8528  -25.6318 H   0  0  0  0  0  0  0  0  0  0  0  0
  -12.5026  -23.1906  -25.8975 H   0  0  0  0  0  0  0  0  0  0  0  0
  -13.5881  -23.5296  -24.5071 H   0  0  0  0  0  0  0  0  0  0  0  0
  -13.0248  -14.8970  -30.4943 H   0  0  0  0  0  0  0  0  0  0  0  0
  -14.2889  -13.6798  -30.1109 H   0  0  0  0  0  0  0  0  0  0  0  0
  -12.7147  -13.6425  -29.2466 H   0  0  0  0  0  0  0  0  0  0  0  0
  1  2  2  0  0  0  0
  1  3  1  0  0  0  0
  1 22  1  0  0  0  0
  2  4  1  0  0  0  0
  2  5  1  0  0  0  0
  3  6  2  0  0  0  0
  4  7  2  0  0  0  0
  4  8  1  0  0  0  0
  5 11  1  0  0  0  0
  6  7  1  0  0  0  0
  8  9  1  0  0  0  0
  8 10  2  0  0  0  0
  9 11  2  0  0  0  0
 11 12  1  0  0  0  0
 12 13  2  0  0  0  0
 12 17  1  0  0  0  0
 13 14  1  0  0  0  0
 14 15  2  0  0  0  0
 15 16  1  0  0  0  0
 15 18  1  0  0  0  0
 16 17  2  0  0  0  0
 18 19  1  0  0  0  0
 18 20  1  0  0  0  0
 18 21  1  0  0  0  0
 22 23  1  0  0  0  0
  3 24  1  0  0  0  0
  5 25  1  0  0  0  0
  6 26  1  0  0  0  0
  7 27  1  0  0  0  0
 13 28  1  0  0  0  0
 14 29  1  0  0  0  0
 16 30  1  0  0  0  0
 17 31  1  0  0  0  0
 19 32  1  0  0  0  0
 20 33  1  0  0  0  0
 20 34  1  0  0  0  0
 20 35  1  0  0  0  0
 21 36  1  0  0  0  0
 21 37  1  0  0  0  0
 21 38  1  0  0  0  0
 23 39  1  0  0  0  0
 23 40  1  0  0  0  0
 23 41  1  0  0  0  0
M  END
> <Name>
5h

> <IC50[nM]>
43

$$$$
5h
  -OEChem-05192314333D
 Structure written by MMmdl.
 41 43  0     0  0  0  0  0  0999 V2000
  -14.6321  -14.6131  -27.5789 C   0  0  0  0  0  0  0  0  0  0  0  0
  -15.1582  -15.4760  -26.5985 C   0  0  0  0  0  0  0  0  0  0  0  0
  -14.7198  -13.2263  -27.3566 C   0  0  0  0  0  0  0  0  0  0  0  0
  -15.8099  -14.9532  -25.4732 C   0  0  0  0  0  0  0  0  0  0  0  0
  -15.0163  -16.8727  -26.7418 N   0  0  0  0  0  0  0  0  0  0  0  0
  -15.3338  -12.7191  -26.2121 C   0  0  0  0  0  0  0  0  0  0  0  0
  -15.8975  -13.5773  -25.2707 C   0  0  0  0  0  0  0  0  0  0  0  0
  -16.4124  -15.9145  -24.4748 C   0  0  0  0  0  0  0  0  0  0  0  0
  -16.0704  -17.2031  -24.7417 N   0  0  0  0  0  0  0  0  0  0  0  0
  -17.1581  -15.6132  -23.5452 O   0  0  0  0  0  0  0  0  0  0  0  0
  -15.4259  -17.7159  -25.8489 C   0  0  0  0  0  0  0  0  0  0  0  0
  -15.2670  -19.1828  -25.9921 C   0  0  0  0  0  0  0  0  0  0  0  0
  -14.6478  -19.7009  -27.1380 C   0  0  0  0  0  0  0  0  0  0  0  0
  -14.4645  -21.0679  -27.2901 C   0  0  0  0  0  0  0  0  0  0  0  0
  -14.8926  -21.9587  -26.3028 C   0  0  0  0  0  0  0  0  0  0  0  0
  -15.5322  -21.4499  -25.1653 C   0  0  0  0  0  0  0  0  0  0  0  0
  -15.7215  -20.0777  -25.0122 C   0  0  0  0  0  0  0  0  0  0  0  0
  -14.5807  -23.4613  -26.4256 C   0  0  0  0  0  0  0  0  0  0  0  0
  -14.2589  -23.8828  -27.7351 O   0  0  0  0  0  0  0  0  0  0  0  0
  -15.7774  -24.3541  -26.0965 C   0  0  0  0  0  0  0  0  0  0  0  0
  -13.3649  -23.7811  -25.5544 C   0  0  0  0  0  0  0  0  0  0  0  0
  -14.0089  -15.1610  -28.6904 O   0  0  0  0  0  0  0  0  0  0  0  0
  -13.4790  -14.2957  -29.6929 C   0  0  0  0  0  0  0  0  0  0  0  0
  -14.3050  -12.5441  -28.0839 H   0  0  0  0  0  0  0  0  0  0  0  0
  -15.3727  -11.6514  -26.0541 H   0  0  0  0  0  0  0  0  0  0  0  0
  -16.3949  -13.1823  -24.3972 H   0  0  0  0  0  0  0  0  0  0  0  0
  -17.4267  -16.4004  -23.0862 H   0  0  0  0  0  0  0  0  0  0  0  0
  -14.3093  -19.0279  -27.9119 H   0  0  0  0  0  0  0  0  0  0  0  0
  -13.9859  -21.4471  -28.1809 H   0  0  0  0  0  0  0  0  0  0  0  0
  -15.8818  -22.1270  -24.4000 H   0  0  0  0  0  0  0  0  0  0  0  0
  -16.2219  -19.7005  -24.1326 H   0  0  0  0  0  0  0  0  0  0  0  0
  -14.0797  -24.8157  -27.7329 H   0  0  0  0  0  0  0  0  0  0  0  0
  -15.4881  -25.4100  -26.2032 H   0  0  0  0  0  0  0  0  0  0  0  0
  -16.1019  -24.1656  -25.0625 H   0  0  0  0  0  0  0  0  0  0  0  0
  -16.6036  -24.1289  -26.7869 H   0  0  0  0  0  0  0  0  0  0  0  0
  -13.1294  -24.8528  -25.6318 H   0  0  0  0  0  0  0  0  0  0  0  0
  -12.5026  -23.1906  -25.8975 H   0  0  0  0  0  0  0  0  0  0  0  0
  -13.5881  -23.5296  -24.5071 H   0  0  0  0  0  0  0  0  0  0  0  0
  -13.0248  -14.8970  -30.4943 H   0  0  0  0  0  0  0  0  0  0  0  0
  -14.2889  -13.6798  -30.1109 H   0  0  0  0  0  0  0  0  0  0  0  0
  -12.7147  -13.6425  -29.2466 H   0  0  0  0  0  0  0  0  0  0  0  0
  1  2  2  0  0  0  0
  1  3  1  0  0  0  0
  1 22  1  0  0  0  0
  2  4  1  0  0  0  0
  2  5  1  0  0  0  0
  3  6  2  0  0  0  0
  4  7  2  0  0  0  0
  4  8  1  0  0  0  0
  5 11  2  0  0  0  0
  6  7  1  0  0  0  0
  8  9  2  0  0  0  0
  8 10  1  0  0  0  0
  9 11  1  0  0  0  0
 11 12  1  0  0  0  0
 12 13  2  0  0  0  0
 12 17  1  0  0  0  0
 13 14  1  0  0  0  0
 14 15  2  0  0  0  0
 15 16  1  0  0  0  0
 15 18  1  0  0  0  0
 16 17  2  0  0  0  0
 18 19  1  0  0  0  0
 18 20  1  0  0  0  0
 18 21  1  0  0  0  0
 22 23  1  0  0  0  0
  3 24  1  0  0  0  0
  6 25  1  0  0  0  0
  7 26  1  0  0  0  0
 10 27  1  0  0  0  0
 13 28  1  0  0  0  0
 14 29  1  0  0  0  0
 16 30  1  0  0  0  0
 17 31  1  0  0  0  0
 19 32  1  0  0  0  0
 20 33  1  0  0  0  0
 20 34  1  0  0  0  0
 20 35  1  0  0  0  0
 21 36  1  0  0  0  0
 21 37  1  0  0  0  0
 21 38  1  0  0  0  0
 23 39  1  0  0  0  0
 23 40  1  0  0  0  0
 23 41  1  0  0  0  0
M  END
> <Name>
5h

> <IC50[nM]>
43

$$$$
5h
  -OEChem-05192314333D
 Structure written by MMmdl.
 41 43  0     1  0  0  0  0  0999 V2000
  -14.6321  -14.6131  -27.5789 C   0  0  0  0  0  0  0  0  0  0  0  0
  -15.1582  -15.4760  -26.5985 C   0  0  0  0  0  0  0  0  0  0  0  0
  -14.7198  -13.2263  -27.3566 C   0  0  0  0  0  0  0  0  0  0  0  0
  -15.8099  -14.9532  -25.4732 C   0  0  3  0  0  0  0  0  0  0  0  0
  -15.0163  -16.8727  -26.7418 N   0  0  0  0  0  0  0  0  0  0  0  0
  -15.3338  -12.7191  -26.2121 C   0  0  0  0  0  0  0  0  0  0  0  0
  -15.8975  -13.5773  -25.2707 C   0  0  0  0  0  0  0  0  0  0  0  0
  -16.4124  -15.9145  -24.4748 C   0  0  0  0  0  0  0  0  0  0  0  0
  -16.0704  -17.2031  -24.7417 N   0  0  0  0  0  0  0  0  0  0  0  0
  -17.1581  -15.6132  -23.5452 O   0  0  0  0  0  0  0  0  0  0  0  0
  -15.4259  -17.7159  -25.8489 C   0  0  0  0  0  0  0  0  0  0  0  0
  -15.2670  -19.1828  -25.9921 C   0  0  0  0  0  0  0  0  0  0  0  0
  -14.6478  -19.7009  -27.1380 C   0  0  0  0  0  0  0  0  0  0  0  0
  -14.4645  -21.0679  -27.2901 C   0  0  0  0  0  0  0  0  0  0  0  0
  -14.8926  -21.9587  -26.3028 C   0  0  0  0  0  0  0  0  0  0  0  0
  -15.5322  -21.4499  -25.1653 C   0  0  0  0  0  0  0  0  0  0  0  0
  -15.7215  -20.0777  -25.0122 C   0  0  0  0  0  0  0  0  0  0  0  0
  -14.5807  -23.4613  -26.4256 C   0  0  0  0  0  0  0  0  0  0  0  0
  -14.2589  -23.8828  -27.7351 O   0  0  0  0  0  0  0  0  0  0  0  0
  -15.7774  -24.3541  -26.0965 C   0  0  0  0  0  0  0  0  0  0  0  0
  -13.3649  -23.7811  -25.5544 C   0  0  0  0  0  0  0  0  0  0  0  0
  -14.0089  -15.1610  -28.6904 O   0  0  0  0  0  0  0  0  0  0  0  0
  -13.4790  -14.2957  -29.6929 C   0  0  0  0  0  0  0  0  0  0  0  0
  -14.3050  -12.5441  -28.0839 H   0  0  0  0  0  0  0  0  0  0  0  0
  -16.7587  -14.9336  -26.0295 H   0  0  0  0  0  0  0  0  0  0  0  0
  -15.3727  -11.6514  -26.0541 H   0  0  0  0  0  0  0  0  0  0  0  0
  -16.3949  -13.1823  -24.3972 H   0  0  0  0  0  0  0  0  0  0  0  0
  -14.3093  -19.0279  -27.9119 H   0  0  0  0  0  0  0  0  0  0  0  0
  -13.9859  -21.4471  -28.1809 H   0  0  0  0  0  0  0  0  0  0  0  0
  -15.8818  -22.1270  -24.4000 H   0  0  0  0  0  0  0  0  0  0  0  0
  -16.2219  -19.7005  -24.1326 H   0  0  0  0  0  0  0  0  0  0  0  0
  -14.0797  -24.8157  -27.7329 H   0  0  0  0  0  0  0  0  0  0  0  0
  -15.4881  -25.4100  -26.2032 H   0  0  0  0  0  0  0  0  0  0  0  0
  -16.1019  -24.1656  -25.0625 H   0  0  0  0  0  0  0  0  0  0  0  0
  -16.6036  -24.1289  -26.7869 H   0  0  0  0  0  0  0  0  0  0  0  0
  -13.1294  -24.8528  -25.6318 H   0  0  0  0  0  0  0  0  0  0  0  0
  -12.5026  -23.1906  -25.8975 H   0  0  0  0  0  0  0  0  0  0  0  0
  -13.5881  -23.5296  -24.5071 H   0  0  0  0  0  0  0  0  0  0  0  0
  -13.0248  -14.8970  -30.4943 H   0  0  0  0  0  0  0  0  0  0  0  0
  -14.2889  -13.6798  -30.1109 H   0  0  0  0  0  0  0  0  0  0  0  0
  -12.7147  -13.6425  -29.2466 H   0  0  0  0  0  0  0  0  0  0  0  0
  1  2  1  0  0  0  0
  1  3  2  0  0  0  0
  1 22  1  0  0  0  0
  2  4  1  0  0  0  0
  2  5  2  0  0  0  0
  3  6  1  0  0  0  0
  4  7  1  0  0  0  0
  4  8  1  0  0  0  0
  5 11  1  0  0  0  0
  6  7  2  0  0  0  0
  8  9  1  0  0  0  0
  8 10  2  0  0  0  0
  9 11  2  0  0  0  0
 11 12  1  0  0  0  0
 12 13  2  0  0  0  0
 12 17  1  0  0  0  0
 13 14  1  0  0  0  0
 14 15  2  0  0  0  0
 15 16  1  0  0  0  0
 15 18  1  0  0  0  0
 16 17  2  0  0  0  0
 18 19  1  0  0  0  0
 18 20  1  0  0  0  0
 18 21  1  0  0  0  0
 22 23  1  0  0  0  0
  3 24  1  0  0  0  0
  4 25  1  0  0  0  0
  6 26  1  0  0  0  0
  7 27  1  0  0  0  0
 13 28  1  0  0  0  0
 14 29  1  0  0  0  0
 16 30  1  0  0  0  0
 17 31  1  0  0  0  0
 19 32  1  0  0  0  0
 20 33  1  0  0  0  0
 20 34  1  0  0  0  0
 20 35  1  0  0  0  0
 21 36  1  0  0  0  0
 21 37  1  0  0  0  0
 21 38  1  0  0  0  0
 23 39  1  0  0  0  0
 23 40  1  0  0  0  0
 23 41  1  0  0  0  0
M  END
> <Name>
5h

> <IC50[nM]>
43

$$$$
5h
  -OEChem-05192314333D
 Structure written by MMmdl.
 41 43  0     1  0  0  0  0  0999 V2000
  -14.6321  -14.6131  -27.5789 C   0  0  3  0  0  0  0  0  0  0  0  0
  -15.1582  -15.4760  -26.5985 C   0  0  0  0  0  0  0  0  0  0  0  0
  -14.7198  -13.2263  -27.3566 C   0  0  0  0  0  0  0  0  0  0  0  0
  -15.8099  -14.9532  -25.4732 C   0  0  0  0  0  0  0  0  0  0  0  0
  -15.0163  -16.8727  -26.7418 N   0  0  0  0  0  0  0  0  0  0  0  0
  -15.3338  -12.7191  -26.2121 C   0  0  0  0  0  0  0  0  0  0  0  0
  -15.8975  -13.5773  -25.2707 C   0  0  0  0  0  0  0  0  0  0  0  0
  -16.4124  -15.9145  -24.4748 C   0  0  0  0  0  0  0  0  0  0  0  0
  -16.0704  -17.2031  -24.7417 N   0  0  0  0  0  0  0  0  0  0  0  0
  -17.1581  -15.6132  -23.5452 O   0  0  0  0  0  0  0  0  0  0  0  0
  -15.4259  -17.7159  -25.8489 C   0  0  0  0  0  0  0  0  0  0  0  0
  -15.2670  -19.1828  -25.9921 C   0  0  0  0  0  0  0  0  0  0  0  0
  -14.6478  -19.7009  -27.1380 C   0  0  0  0  0  0  0  0  0  0  0  0
  -14.4645  -21.0679  -27.2901 C   0  0  0  0  0  0  0  0  0  0  0  0
  -14.8926  -21.9587  -26.3028 C   0  0  0  0  0  0  0  0  0  0  0  0
  -15.5322  -21.4499  -25.1653 C   0  0  0  0  0  0  0  0  0  0  0  0
  -15.7215  -20.0777  -25.0122 C   0  0  0  0  0  0  0  0  0  0  0  0
  -14.5807  -23.4613  -26.4256 C   0  0  0  0  0  0  0  0  0  0  0  0
  -14.2589  -23.8828  -27.7351 O   0  0  0  0  0  0  0  0  0  0  0  0
  -15.7774  -24.3541  -26.0965 C   0  0  0  0  0  0  0  0  0  0  0  0
  -13.3649  -23.7811  -25.5544 C   0  0  0  0  0  0  0  0  0  0  0  0
  -14.0089  -15.1610  -28.6904 O   0  0  0  0  0  0  0  0  0  0  0  0
  -13.4790  -14.2957  -29.6929 C   0  0  0  0  0  0  0  0  0  0  0  0
  -15.5968  -14.6032  -28.1074 H   0  0  0  0  0  0  0  0  0  0  0  0
  -14.3050  -12.5441  -28.0839 H   0  0  0  0  0  0  0  0  0  0  0  0
  -15.3727  -11.6514  -26.0541 H   0  0  0  0  0  0  0  0  0  0  0  0
  -16.3949  -13.1823  -24.3972 H   0  0  0  0  0  0  0  0  0  0  0  0
  -14.3093  -19.0279  -27.9119 H   0  0  0  0  0  0  0  0  0  0  0  0
  -13.9859  -21.4471  -28.1809 H   0  0  0  0  0  0  0  0  0  0  0  0
  -15.8818  -22.1270  -24.4000 H   0  0  0  0  0  0  0  0  0  0  0  0
  -16.2219  -19.7005  -24.1326 H   0  0  0  0  0  0  0  0  0  0  0  0
  -14.0797  -24.8157  -27.7329 H   0  0  0  0  0  0  0  0  0  0  0  0
  -15.4881  -25.4100  -26.2032 H   0  0  0  0  0  0  0  0  0  0  0  0
  -16.1019  -24.1656  -25.0625 H   0  0  0  0  0  0  0  0  0  0  0  0
  -16.6036  -24.1289  -26.7869 H   0  0  0  0  0  0  0  0  0  0  0  0
  -13.1294  -24.8528  -25.6318 H   0  0  0  0  0  0  0  0  0  0  0  0
  -12.5026  -23.1906  -25.8975 H   0  0  0  0  0  0  0  0  0  0  0  0
  -13.5881  -23.5296  -24.5071 H   0  0  0  0  0  0  0  0  0  0  0  0
  -13.0248  -14.8970  -30.4943 H   0  0  0  0  0  0  0  0  0  0  0  0
  -14.2889  -13.6798  -30.1109 H   0  0  0  0  0  0  0  0  0  0  0  0
  -12.7147  -13.6425  -29.2466 H   0  0  0  0  0  0  0  0  0  0  0  0
  1  2  1  0  0  0  0
  1  3  1  0  0  0  0
  1 22  1  0  0  0  0
  2  4  1  0  0  0  0
  2  5  2  0  0  0  0
  3  6  2  0  0  0  0
  4  7  2  0  0  0  0
  4  8  1  0  0  0  0
  5 11  1  0  0  0  0
  6  7  1  0  0  0  0
  8  9  1  0  0  0  0
  8 10  2  0  0  0  0
  9 11  2  0  0  0  0
 11 12  1  0  0  0  0
 12 13  2  0  0  0  0
 12 17  1  0  0  0  0
 13 14  1  0  0  0  0
 14 15  2  0  0  0  0
 15 16  1  0  0  0  0
 15 18  1  0  0  0  0
 16 17  2  0  0  0  0
 18 19  1  0  0  0  0
 18 20  1  0  0  0  0
 18 21  1  0  0  0  0
 22 23  1  0  0  0  0
  1 24  1  0  0  0  0
  3 25  1  0  0  0  0
  6 26  1  0  0  0  0
  7 27  1  0  0  0  0
 13 28  1  0  0  0  0
 14 29  1  0  0  0  0
 16 30  1  0  0  0  0
 17 31  1  0  0  0  0
 19 32  1  0  0  0  0
 20 33  1  0  0  0  0
 20 34  1  0  0  0  0
 20 35  1  0  0  0  0
 21 36  1  0  0  0  0
 21 37  1  0  0  0  0
 21 38  1  0  0  0  0
 23 39  1  0  0  0  0
 23 40  1  0  0  0  0
 23 41  1  0  0  0  0
M  END
> <Name>
5h

> <IC50[nM]>
43

$$$$
5h
  -OEChem-05192314333D
 Structure written by MMmdl.
 41 43  0     0  0  0  0  0  0999 V2000
  -14.6321  -14.6131  -27.5789 C   0  0  0  0  0  0  0  0  0  0  0  0
  -15.1582  -15.4760  -26.5985 C   0  0  0  0  0  0  0  0  0  0  0  0
  -14.7198  -13.2263  -27.3566 C   0  0  0  0  0  0  0  0  0  0  0  0
  -15.8099  -14.9532  -25.4732 C   0  0  0  0  0  0  0  0  0  0  0  0
  -15.0163  -16.8727  -26.7418 N   0  0  0  0  0  0  0  0  0  0  0  0
  -15.3338  -12.7191  -26.2121 C   0  0  0  0  0  0  0  0  0  0  0  0
  -15.8975  -13.5773  -25.2707 C   0  0  0  0  0  0  0  0  0  0  0  0
  -16.4124  -15.9145  -24.4748 C   0  0  0  0  0  0  0  0  0  0  0  0
  -16.0704  -17.2031  -24.7417 N   0  0  0  0  0  0  0  0  0  0  0  0
  -17.1581  -15.6132  -23.5452 O   0  0  0  0  0  0  0  0  0  0  0  0
  -15.4259  -17.7159  -25.8489 C   0  0  0  0  0  0  0  0  0  0  0  0
  -15.2670  -19.1828  -25.9921 C   0  0  0  0  0  0  0  0  0  0  0  0
  -14.6478  -19.7009  -27.1380 C   0  0  0  0  0  0  0  0  0  0  0  0
  -14.4645  -21.0679  -27.2901 C   0  0  0  0  0  0  0  0  0  0  0  0
  -14.8926  -21.9587  -26.3028 C   0  0  0  0  0  0  0  0  0  0  0  0
  -15.5322  -21.4499  -25.1653 C   0  0  0  0  0  0  0  0  0  0  0  0
  -15.7215  -20.0777  -25.0122 C   0  0  0  0  0  0  0  0  0  0  0  0
  -14.5807  -23.4613  -26.4256 C   0  0  0  0  0  0  0  0  0  0  0  0
  -14.2589  -23.8828  -27.7351 O   0  0  0  0  0  0  0  0  0  0  0  0
  -15.7774  -24.3541  -26.0965 C   0  0  0  0  0  0  0  0  0  0  0  0
  -13.3649  -23.7811  -25.5544 C   0  0  0  0  0  0  0  0  0  0  0  0
  -14.0089  -15.1610  -28.6904 O   0  0  0  0  0  0  0  0  0  0  0  0
  -13.4790  -14.2957  -29.6929 C   0  0  0  0  0  0  0  0  0  0  0  0
  -14.3050  -12.5441  -28.0839 H   0  0  0  0  0  0  0  0  0  0  0  0
  -14.5726  -12.1273  -25.6826 H   0  0  0  0  0  0  0  0  0  0  0  0
  -16.1407  -12.0552  -26.5558 H   0  0  0  0  0  0  0  0  0  0  0  0
  -16.3949  -13.1823  -24.3972 H   0  0  0  0  0  0  0  0  0  0  0  0
  -14.3093  -19.0279  -27.9119 H   0  0  0  0  0  0  0  0  0  0  0  0
  -13.9859  -21.4471  -28.1809 H   0  0  0  0  0  0  0  0  0  0  0  0
  -15.8818  -22.1270  -24.4000 H   0  0  0  0  0  0  0  0  0  0  0  0
  -16.2219  -19.7005  -24.1326 H   0  0  0  0  0  0  0  0  0  0  0  0
  -14.0797  -24.8157  -27.7329 H   0  0  0  0  0  0  0  0  0  0  0  0
  -15.4881  -25.4100  -26.2032 H   0  0  0  0  0  0  0  0  0  0  0  0
  -16.1019  -24.1656  -25.0625 H   0  0  0  0  0  0  0  0  0  0  0  0
  -16.6036  -24.1289  -26.7869 H   0  0  0  0  0  0  0  0  0  0  0  0
  -13.1294  -24.8528  -25.6318 H   0  0  0  0  0  0  0  0  0  0  0  0
  -12.5026  -23.1906  -25.8975 H   0  0  0  0  0  0  0  0  0  0  0  0
  -13.5881  -23.5296  -24.5071 H   0  0  0  0  0  0  0  0  0  0  0  0
  -13.0248  -14.8970  -30.4943 H   0  0  0  0  0  0  0  0  0  0  0  0
  -14.2889  -13.6798  -30.1109 H   0  0  0  0  0  0  0  0  0  0  0  0
  -12.7147  -13.6425  -29.2466 H   0  0  0  0  0  0  0  0  0  0  0  0
  1  2  1  0  0  0  0
  1  3  2  0  0  0  0
  1 22  1  0  0  0  0
  2  4  1  0  0  0  0
  2  5  2  0  0  0  0
  3  6  1  0  0  0  0
  4  7  2  0  0  0  0
  4  8  1  0  0  0  0
  5 11  1  0  0  0  0
  6  7  1  0  0  0  0
  8  9  1  0  0  0  0
  8 10  2  0  0  0  0
  9 11  2  0  0  0  0
 11 12  1  0  0  0  0
 12 13  2  0  0  0  0
 12 17  1  0  0  0  0
 13 14  1  0  0  0  0
 14 15  2  0  0  0  0
 15 16  1  0  0  0  0
 15 18  1  0  0  0  0
 16 17  2  0  0  0  0
 18 19  1  0  0  0  0
 18 20  1  0  0  0  0
 18 21  1  0  0  0  0
 22 23  1  0  0  0  0
  3 24  1  0  0  0  0
  6 25  1  0  0  0  0
  6 26  1  0  0  0  0
  7 27  1  0  0  0  0
 13 28  1  0  0  0  0
 14 29  1  0  0  0  0
 16 30  1  0  0  0  0
 17 31  1  0  0  0  0
 19 32  1  0  0  0  0
 20 33  1  0  0  0  0
 20 34  1  0  0  0  0
 20 35  1  0  0  0  0
 21 36  1  0  0  0  0
 21 37  1  0  0  0  0
 21 38  1  0  0  0  0
 23 39  1  0  0  0  0
 23 40  1  0  0  0  0
 23 41  1  0  0  0  0
M  END
> <Name>
5h

> <IC50[nM]>
43

$$$$
