5l
  -OEChem-05192314333D
 Structure written by MMmdl.
 37 39  0     0  0  0  0  0  0999 V2000
  -15.3002  -19.2006  -26.0265 C   0  0  0  0  0  0  0  0  0  0  0  0
  -15.7139  -20.0866  -25.0199 C   0  0  0  0  0  0  0  0  0  0  0  0
  -14.7328  -19.7204  -27.1959 C   0  0  0  0  0  0  0  0  0  0  0  0
  -15.5262  -21.4548  -25.1704 C   0  0  0  0  0  0  0  0  0  0  0  0
  -14.5510  -21.0858  -27.3440 C   0  0  0  0  0  0  0  0  0  0  0  0
  -14.9761  -16.8867  -26.7340 N   0  0  0  0  0  0  0  0  0  0  0  0
  -14.9308  -21.9629  -26.3290 C   0  0  0  0  0  0  0  0  0  0  0  0
  -14.5881  -23.4511  -26.4179 C   0  0  0  0  0  0  0  0  0  0  0  0
  -16.5444  -15.9689  -24.5640 C   0  0  0  0  0  0  0  0  0  0  0  0
  -16.1761  -17.2463  -24.8220 N   0  0  0  0  0  0  0  0  0  0  0  0
  -15.4513  -17.7394  -25.8850 C   0  0  0  0  0  0  0  0  0  0  0  0
  -17.3758  -15.7040  -23.6992 O   0  0  0  0  0  0  0  0  0  0  0  0
  -15.7761  -24.3593  -26.0992 C   0  0  0  0  0  0  0  0  0  0  0  0
  -14.2360  -23.8967  -27.6992 O   0  0  0  0  0  0  0  0  0  0  0  0
  -13.3505  -23.6941  -25.5581 C   0  0  0  0  0  0  0  0  0  0  0  0
  -15.1508  -15.4985  -26.5840 C   0  0  0  0  0  0  0  0  0  0  0  0
  -15.8726  -14.9888  -25.4979 C   0  0  0  0  0  0  0  0  0  0  0  0
  -15.9461  -13.6145  -25.2800 C   0  0  0  0  0  0  0  0  0  0  0  0
  -15.3326  -12.7448  -26.1831 C   0  0  0  0  0  0  0  0  0  0  0  0
  -14.6579  -13.2427  -27.2994 C   0  0  0  0  0  0  0  0  0  0  0  0
  -14.5674  -14.6209  -27.5072 C   0  0  0  0  0  0  0  0  0  0  0  0
  -13.8810  -15.0871  -28.5782 F   0  0  0  0  0  0  0  0  0  0  0  0
  -16.5760  -13.1269  -24.1896 F   0  0  0  0  0  0  0  0  0  0  0  0
  -16.1802  -19.7031  -24.1244 H   0  0  0  0  0  0  0  0  0  0  0  0
  -14.4342  -19.0513  -27.9894 H   0  0  0  0  0  0  0  0  0  0  0  0
  -15.8418  -22.1295  -24.3884 H   0  0  0  0  0  0  0  0  0  0  0  0
  -14.1122  -21.4733  -28.2516 H   0  0  0  0  0  0  0  0  0  0  0  0
  -16.4705  -17.9246  -24.1488 H   0  0  0  0  0  0  0  0  0  0  0  0
  -15.4660  -25.4116  -26.1802 H   0  0  0  0  0  0  0  0  0  0  0  0
  -16.1271  -24.1583  -25.0763 H   0  0  0  0  0  0  0  0  0  0  0  0
  -16.5904  -24.1613  -26.8118 H   0  0  0  0  0  0  0  0  0  0  0  0
  -14.0391  -24.8256  -27.6689 H   0  0  0  0  0  0  0  0  0  0  0  0
  -13.0770  -24.7587  -25.6007 H   0  0  0  0  0  0  0  0  0  0  0  0
  -12.5159  -23.0858  -25.9368 H   0  0  0  0  0  0  0  0  0  0  0  0
  -13.5665  -23.4126  -24.5169 H   0  0  0  0  0  0  0  0  0  0  0  0
  -15.3802  -11.6787  -26.0171 H   0  0  0  0  0  0  0  0  0  0  0  0
  -14.2050  -12.5607  -28.0038 H   0  0  0  0  0  0  0  0  0  0  0  0
  1  2  2  0  0  0  0
  1  3  1  0  0  0  0
  1 11  1  0  0  0  0
  2  4  1  0  0  0  0
  3  5  2  0  0  0  0
  4  7  2  0  0  0  0
  5  7  1  0  0  0  0
  6 11  2  0  0  0  0
  6 16  1  0  0  0  0
  7  8  1  0  0  0  0
  8 13  1  0  0  0  0
  8 14  1  0  0  0  0
  8 15  1  0  0  0  0
  9 10  1  0  0  0  0
  9 12  2  0  0  0  0
  9 17  1  0  0  0  0
 10 11  1  0  0  0  0
 16 17  2  0  0  0  0
 16 21  1  0  0  0  0
 17 18  1  0  0  0  0
 18 19  2  0  0  0  0
 18 23  1  0  0  0  0
 19 20  1  0  0  0  0
 20 21  2  0  0  0  0
 21 22  1  0  0  0  0
  2 24  1  0  0  0  0
  3 25  1  0  0  0  0
  4 26  1  0  0  0  0
  5 27  1  0  0  0  0
 10 28  1  0  0  0  0
 13 29  1  0  0  0  0
 13 30  1  0  0  0  0
 13 31  1  0  0  0  0
 14 32  1  0  0  0  0
 15 33  1  0  0  0  0
 15 34  1  0  0  0  0
 15 35  1  0  0  0  0
 19 36  1  0  0  0  0
 20 37  1  0  0  0  0
M  END
> <Name>
5l

> <IC50[nM]>
40

$$$$
5l
  -OEChem-05192314333D
 Structure written by MMmdl.
 37 39  0     0  0  0  0  0  0999 V2000
  -15.3002  -19.2006  -26.0265 C   0  0  0  0  0  0  0  0  0  0  0  0
  -15.7139  -20.0866  -25.0199 C   0  0  0  0  0  0  0  0  0  0  0  0
  -14.7328  -19.7204  -27.1959 C   0  0  0  0  0  0  0  0  0  0  0  0
  -15.5262  -21.4548  -25.1704 C   0  0  0  0  0  0  0  0  0  0  0  0
  -14.5510  -21.0858  -27.3440 C   0  0  0  0  0  0  0  0  0  0  0  0
  -14.9761  -16.8867  -26.7340 N   0  0  0  0  0  0  0  0  0  0  0  0
  -14.9308  -21.9629  -26.3290 C   0  0  0  0  0  0  0  0  0  0  0  0
  -14.5881  -23.4511  -26.4179 C   0  0  0  0  0  0  0  0  0  0  0  0
  -16.5444  -15.9689  -24.5640 C   0  0  0  0  0  0  0  0  0  0  0  0
  -16.1761  -17.2463  -24.8220 N   0  0  0  0  0  0  0  0  0  0  0  0
  -15.4513  -17.7394  -25.8850 C   0  0  0  0  0  0  0  0  0  0  0  0
  -17.3758  -15.7040  -23.6992 O   0  0  0  0  0  0  0  0  0  0  0  0
  -15.7761  -24.3593  -26.0992 C   0  0  0  0  0  0  0  0  0  0  0  0
  -14.2360  -23.8967  -27.6992 O   0  0  0  0  0  0  0  0  0  0  0  0
  -13.3505  -23.6941  -25.5581 C   0  0  0  0  0  0  0  0  0  0  0  0
  -15.1508  -15.4985  -26.5840 C   0  0  0  0  0  0  0  0  0  0  0  0
  -15.8726  -14.9888  -25.4979 C   0  0  0  0  0  0  0  0  0  0  0  0
  -15.9461  -13.6145  -25.2800 C   0  0  0  0  0  0  0  0  0  0  0  0
  -15.3326  -12.7448  -26.1831 C   0  0  0  0  0  0  0  0  0  0  0  0
  -14.6579  -13.2427  -27.2994 C   0  0  0  0  0  0  0  0  0  0  0  0
  -14.5674  -14.6209  -27.5072 C   0  0  0  0  0  0  0  0  0  0  0  0
  -13.8810  -15.0871  -28.5782 F   0  0  0  0  0  0  0  0  0  0  0  0
  -16.5760  -13.1269  -24.1896 F   0  0  0  0  0  0  0  0  0  0  0  0
  -16.1802  -19.7031  -24.1244 H   0  0  0  0  0  0  0  0  0  0  0  0
  -14.4342  -19.0513  -27.9894 H   0  0  0  0  0  0  0  0  0  0  0  0
  -15.8418  -22.1295  -24.3884 H   0  0  0  0  0  0  0  0  0  0  0  0
  -14.1122  -21.4733  -28.2516 H   0  0  0  0  0  0  0  0  0  0  0  0
  -14.4667  -17.2261  -27.5247 H   0  0  0  0  0  0  0  0  0  0  0  0
  -15.4660  -25.4116  -26.1802 H   0  0  0  0  0  0  0  0  0  0  0  0
  -16.1271  -24.1583  -25.0763 H   0  0  0  0  0  0  0  0  0  0  0  0
  -16.5904  -24.1613  -26.8118 H   0  0  0  0  0  0  0  0  0  0  0  0
  -14.0391  -24.8256  -27.6689 H   0  0  0  0  0  0  0  0  0  0  0  0
  -13.0770  -24.7587  -25.6007 H   0  0  0  0  0  0  0  0  0  0  0  0
  -12.5159  -23.0858  -25.9368 H   0  0  0  0  0  0  0  0  0  0  0  0
  -13.5665  -23.4126  -24.5169 H   0  0  0  0  0  0  0  0  0  0  0  0
  -15.3802  -11.6787  -26.0171 H   0  0  0  0  0  0  0  0  0  0  0  0
  -14.2050  -12.5607  -28.0038 H   0  0  0  0  0  0  0  0  0  0  0  0
  1  2  2  0  0  0  0
  1  3  1  0  0  0  0
  1 11  1  0  0  0  0
  2  4  1  0  0  0  0
  3  5  2  0  0  0  0
  4  7  2  0  0  0  0
  5  7  1  0  0  0  0
  6 11  1  0  0  0  0
  6 16  1  0  0  0  0
  7  8  1  0  0  0  0
  8 13  1  0  0  0  0
  8 14  1  0  0  0  0
  8 15  1  0  0  0  0
  9 10  1  0  0  0  0
  9 12  2  0  0  0  0
  9 17  1  0  0  0  0
 10 11  2  0  0  0  0
 16 17  2  0  0  0  0
 16 21  1  0  0  0  0
 17 18  1  0  0  0  0
 18 19  2  0  0  0  0
 18 23  1  0  0  0  0
 19 20  1  0  0  0  0
 20 21  2  0  0  0  0
 21 22  1  0  0  0  0
  2 24  1  0  0  0  0
  3 25  1  0  0  0  0
  4 26  1  0  0  0  0
  5 27  1  0  0  0  0
  6 28  1  0  0  0  0
 13 29  1  0  0  0  0
 13 30  1  0  0  0  0
 13 31  1  0  0  0  0
 14 32  1  0  0  0  0
 15 33  1  0  0  0  0
 15 34  1  0  0  0  0
 15 35  1  0  0  0  0
 19 36  1  0  0  0  0
 20 37  1  0  0  0  0
M  END
> <Name>
5l

> <IC50[nM]>
40

$$$$
5l
  -OEChem-05192314333D
 Structure written by MMmdl.
 37 39  0     0  0  0  0  0  0999 V2000
  -15.3002  -19.2006  -26.0265 C   0  0  0  0  0  0  0  0  0  0  0  0
  -15.7139  -20.0866  -25.0199 C   0  0  0  0  0  0  0  0  0  0  0  0
  -14.7328  -19.7204  -27.1959 C   0  0  0  0  0  0  0  0  0  0  0  0
  -15.5262  -21.4548  -25.1704 C   0  0  0  0  0  0  0  0  0  0  0  0
  -14.5510  -21.0858  -27.3440 C   0  0  0  0  0  0  0  0  0  0  0  0
  -14.9761  -16.8867  -26.7340 N   0  0  0  0  0  0  0  0  0  0  0  0
  -14.9308  -21.9629  -26.3290 C   0  0  0  0  0  0  0  0  0  0  0  0
  -14.5881  -23.4511  -26.4179 C   0  0  0  0  0  0  0  0  0  0  0  0
  -16.5444  -15.9689  -24.5640 C   0  0  0  0  0  0  0  0  0  0  0  0
  -16.1761  -17.2463  -24.8220 N   0  0  0  0  0  0  0  0  0  0  0  0
  -15.4513  -17.7394  -25.8850 C   0  0  0  0  0  0  0  0  0  0  0  0
  -17.3758  -15.7040  -23.6992 O   0  0  0  0  0  0  0  0  0  0  0  0
  -15.7761  -24.3593  -26.0992 C   0  0  0  0  0  0  0  0  0  0  0  0
  -14.2360  -23.8967  -27.6992 O   0  0  0  0  0  0  0  0  0  0  0  0
  -13.3505  -23.6941  -25.5581 C   0  0  0  0  0  0  0  0  0  0  0  0
  -15.1508  -15.4985  -26.5840 C   0  0  0  0  0  0  0  0  0  0  0  0
  -15.8726  -14.9888  -25.4979 C   0  0  0  0  0  0  0  0  0  0  0  0
  -15.9461  -13.6145  -25.2800 C   0  0  0  0  0  0  0  0  0  0  0  0
  -15.3326  -12.7448  -26.1831 C   0  0  0  0  0  0  0  0  0  0  0  0
  -14.6579  -13.2427  -27.2994 C   0  0  0  0  0  0  0  0  0  0  0  0
  -14.5674  -14.6209  -27.5072 C   0  0  0  0  0  0  0  0  0  0  0  0
  -13.8810  -15.0871  -28.5782 F   0  0  0  0  0  0  0  0  0  0  0  0
  -16.5760  -13.1269  -24.1896 F   0  0  0  0  0  0  0  0  0  0  0  0
  -16.1802  -19.7031  -24.1244 H   0  0  0  0  0  0  0  0  0  0  0  0
  -14.4342  -19.0513  -27.9894 H   0  0  0  0  0  0  0  0  0  0  0  0
  -15.8418  -22.1295  -24.3884 H   0  0  0  0  0  0  0  0  0  0  0  0
  -14.1122  -21.4733  -28.2516 H   0  0  0  0  0  0  0  0  0  0  0  0
  -17.6754  -16.5076  -23.2906 H   0  0  0  0  0  0  0  0  0  0  0  0
  -15.4660  -25.4116  -26.1802 H   0  0  0  0  0  0  0  0  0  0  0  0
  -16.1271  -24.1583  -25.0763 H   0  0  0  0  0  0  0  0  0  0  0  0
  -16.5904  -24.1613  -26.8118 H   0  0  0  0  0  0  0  0  0  0  0  0
  -14.0391  -24.8256  -27.6689 H   0  0  0  0  0  0  0  0  0  0  0  0
  -13.0770  -24.7587  -25.6007 H   0  0  0  0  0  0  0  0  0  0  0  0
  -12.5159  -23.0858  -25.9368 H   0  0  0  0  0  0  0  0  0  0  0  0
  -13.5665  -23.4126  -24.5169 H   0  0  0  0  0  0  0  0  0  0  0  0
  -15.3802  -11.6787  -26.0171 H   0  0  0  0  0  0  0  0  0  0  0  0
  -14.2050  -12.5607  -28.0038 H   0  0  0  0  0  0  0  0  0  0  0  0
  1  2  2  0  0  0  0
  1  3  1  0  0  0  0
  1 11  1  0  0  0  0
  2  4  1  0  0  0  0
  3  5  2  0  0  0  0
  4  7  2  0  0  0  0
  5  7  1  0  0  0  0
  6 11  2  0  0  0  0
  6 16  1  0  0  0  0
  7  8  1  0  0  0  0
  8 13  1  0  0  0  0
  8 14  1  0  0  0  0
  8 15  1  0  0  0  0
  9 10  2  0  0  0  0
  9 12  1  0  0  0  0
  9 17  1  0  0  0  0
 10 11  1  0  0  0  0
 16 17  2  0  0  0  0
 16 21  1  0  0  0  0
 17 18  1  0  0  0  0
 18 19  2  0  0  0  0
 18 23  1  0  0  0  0
 19 20  1  0  0  0  0
 20 21  2  0  0  0  0
 21 22  1  0  0  0  0
  2 24  1  0  0  0  0
  3 25  1  0  0  0  0
  4 26  1  0  0  0  0
  5 27  1  0  0  0  0
 12 28  1  0  0  0  0
 13 29  1  0  0  0  0
 13 30  1  0  0  0  0
 13 31  1  0  0  0  0
 14 32  1  0  0  0  0
 15 33  1  0  0  0  0
 15 34  1  0  0  0  0
 15 35  1  0  0  0  0
 19 36  1  0  0  0  0
 20 37  1  0  0  0  0
M  END
> <Name>
5l

> <IC50[nM]>
40

$$$$
5l
  -OEChem-05192314333D
 Structure written by MMmdl.
 37 39  0     1  0  0  0  0  0999 V2000
  -15.3002  -19.2006  -26.0265 C   0  0  0  0  0  0  0  0  0  0  0  0
  -15.7139  -20.0866  -25.0199 C   0  0  0  0  0  0  0  0  0  0  0  0
  -14.7328  -19.7204  -27.1959 C   0  0  0  0  0  0  0  0  0  0  0  0
  -15.5262  -21.4548  -25.1704 C   0  0  0  0  0  0  0  0  0  0  0  0
  -14.5510  -21.0858  -27.3440 C   0  0  0  0  0  0  0  0  0  0  0  0
  -14.9761  -16.8867  -26.7340 N   0  0  0  0  0  0  0  0  0  0  0  0
  -14.9308  -21.9629  -26.3290 C   0  0  0  0  0  0  0  0  0  0  0  0
  -14.5881  -23.4511  -26.4179 C   0  0  0  0  0  0  0  0  0  0  0  0
  -16.5444  -15.9689  -24.5640 C   0  0  0  0  0  0  0  0  0  0  0  0
  -16.1761  -17.2463  -24.8220 N   0  0  0  0  0  0  0  0  0  0  0  0
  -15.4513  -17.7394  -25.8850 C   0  0  0  0  0  0  0  0  0  0  0  0
  -17.3758  -15.7040  -23.6992 O   0  0  0  0  0  0  0  0  0  0  0  0
  -15.7761  -24.3593  -26.0992 C   0  0  0  0  0  0  0  0  0  0  0  0
  -14.2360  -23.8967  -27.6992 O   0  0  0  0  0  0  0  0  0  0  0  0
  -13.3505  -23.6941  -25.5581 C   0  0  0  0  0  0  0  0  0  0  0  0
  -15.1508  -15.4985  -26.5840 C   0  0  0  0  0  0  0  0  0  0  0  0
  -15.8726  -14.9888  -25.4979 C   0  0  0  0  0  0  0  0  0  0  0  0
  -15.9461  -13.6145  -25.2800 C   0  0  0  0  0  0  0  0  0  0  0  0
  -15.3326  -12.7448  -26.1831 C   0  0  0  0  0  0  0  0  0  0  0  0
  -14.6579  -13.2427  -27.2994 C   0  0  0  0  0  0  0  0  0  0  0  0
  -14.5674  -14.6209  -27.5072 C   0  0  3  0  0  0  0  0  0  0  0  0
  -13.8810  -15.0871  -28.5782 F   0  0  0  0  0  0  0  0  0  0  0  0
  -16.5760  -13.1269  -24.1896 F   0  0  0  0  0  0  0  0  0  0  0  0
  -16.1802  -19.7031  -24.1244 H   0  0  0  0  0  0  0  0  0  0  0  0
  -14.4342  -19.0513  -27.9894 H   0  0  0  0  0  0  0  0  0  0  0  0
  -15.8418  -22.1295  -24.3884 H   0  0  0  0  0  0  0  0  0  0  0  0
  -14.1122  -21.4733  -28.2516 H   0  0  0  0  0  0  0  0  0  0  0  0
  -15.4660  -25.4116  -26.1802 H   0  0  0  0  0  0  0  0  0  0  0  0
  -16.1271  -24.1583  -25.0763 H   0  0  0  0  0  0  0  0  0  0  0  0
  -16.5904  -24.1613  -26.8118 H   0  0  0  0  0  0  0  0  0  0  0  0
  -14.0391  -24.8256  -27.6689 H   0  0  0  0  0  0  0  0  0  0  0  0
  -13.0770  -24.7587  -25.6007 H   0  0  0  0  0  0  0  0  0  0  0  0
  -12.5159  -23.0858  -25.9368 H   0  0  0  0  0  0  0  0  0  0  0  0
  -13.5665  -23.4126  -24.5169 H   0  0  0  0  0  0  0  0  0  0  0  0
  -15.3802  -11.6787  -26.0171 H   0  0  0  0  0  0  0  0  0  0  0  0
  -14.2050  -12.5607  -28.0038 H   0  0  0  0  0  0  0  0  0  0  0  0
  -15.4967  -14.6044  -28.0955 H   0  0  0  0  0  0  0  0  0  0  0  0
  1  2  2  0  0  0  0
  1  3  1  0  0  0  0
  1 11  1  0  0  0  0
  2  4  1  0  0  0  0
  3  5  2  0  0  0  0
  4  7  2  0  0  0  0
  5  7  1  0  0  0  0
  6 11  1  0  0  0  0
  6 16  2  0  0  0  0
  7  8  1  0  0  0  0
  8 13  1  0  0  0  0
  8 14  1  0  0  0  0
  8 15  1  0  0  0  0
  9 10  1  0  0  0  0
  9 12  2  0  0  0  0
  9 17  1  0  0  0  0
 10 11  2  0  0  0  0
 16 17  1  0  0  0  0
 16 21  1  0  0  0  0
 17 18  2  0  0  0  0
 18 19  1  0  0  0  0
 18 23  1  0  0  0  0
 19 20  2  0  0  0  0
 20 21  1  0  0  0  0
 21 22  1  0  0  0  0
  2 24  1  0  0  0  0
  3 25  1  0  0  0  0
  4 26  1  0  0  0  0
  5 27  1  0  0  0  0
 13 28  1  0  0  0  0
 13 29  1  0  0  0  0
 13 30  1  0  0  0  0
 14 31  1  0  0  0  0
 15 32  1  0  0  0  0
 15 33  1  0  0  0  0
 15 34  1  0  0  0  0
 19 35  1  0  0  0  0
 20 36  1  0  0  0  0
 21 37  1  0  0  0  0
M  END
> <Name>
5l

> <IC50[nM]>
40

$$$$
5l
  -OEChem-05192314333D
 Structure written by MMmdl.
 37 39  0     1  0  0  0  0  0999 V2000
  -15.3002  -19.2006  -26.0265 C   0  0  0  0  0  0  0  0  0  0  0  0
  -15.7139  -20.0866  -25.0199 C   0  0  0  0  0  0  0  0  0  0  0  0
  -14.7328  -19.7204  -27.1959 C   0  0  0  0  0  0  0  0  0  0  0  0
  -15.5262  -21.4548  -25.1704 C   0  0  0  0  0  0  0  0  0  0  0  0
  -14.5510  -21.0858  -27.3440 C   0  0  0  0  0  0  0  0  0  0  0  0
  -14.9761  -16.8867  -26.7340 N   0  0  0  0  0  0  0  0  0  0  0  0
  -14.9308  -21.9629  -26.3290 C   0  0  0  0  0  0  0  0  0  0  0  0
  -14.5881  -23.4511  -26.4179 C   0  0  0  0  0  0  0  0  0  0  0  0
  -16.5444  -15.9689  -24.5640 C   0  0  0  0  0  0  0  0  0  0  0  0
  -16.1761  -17.2463  -24.8220 N   0  0  0  0  0  0  0  0  0  0  0  0
  -15.4513  -17.7394  -25.8850 C   0  0  0  0  0  0  0  0  0  0  0  0
  -17.3758  -15.7040  -23.6992 O   0  0  0  0  0  0  0  0  0  0  0  0
  -15.7761  -24.3593  -26.0992 C   0  0  0  0  0  0  0  0  0  0  0  0
  -14.2360  -23.8967  -27.6992 O   0  0  0  0  0  0  0  0  0  0  0  0
  -13.3505  -23.6941  -25.5581 C   0  0  0  0  0  0  0  0  0  0  0  0
  -15.1508  -15.4985  -26.5840 C   0  0  0  0  0  0  0  0  0  0  0  0
  -15.8726  -14.9888  -25.4979 C   0  0  3  0  0  0  0  0  0  0  0  0
  -15.9461  -13.6145  -25.2800 C   0  0  0  0  0  0  0  0  0  0  0  0
  -15.3326  -12.7448  -26.1831 C   0  0  0  0  0  0  0  0  0  0  0  0
  -14.6579  -13.2427  -27.2994 C   0  0  0  0  0  0  0  0  0  0  0  0
  -14.5674  -14.6209  -27.5072 C   0  0  0  0  0  0  0  0  0  0  0  0
  -13.8810  -15.0871  -28.5782 F   0  0  0  0  0  0  0  0  0  0  0  0
  -16.5760  -13.1269  -24.1896 F   0  0  0  0  0  0  0  0  0  0  0  0
  -16.1802  -19.7031  -24.1244 H   0  0  0  0  0  0  0  0  0  0  0  0
  -14.4342  -19.0513  -27.9894 H   0  0  0  0  0  0  0  0  0  0  0  0
  -15.8418  -22.1295  -24.3884 H   0  0  0  0  0  0  0  0  0  0  0  0
  -14.1122  -21.4733  -28.2516 H   0  0  0  0  0  0  0  0  0  0  0  0
  -15.4660  -25.4116  -26.1802 H   0  0  0  0  0  0  0  0  0  0  0  0
  -16.1271  -24.1583  -25.0763 H   0  0  0  0  0  0  0  0  0  0  0  0
  -16.5904  -24.1613  -26.8118 H   0  0  0  0  0  0  0  0  0  0  0  0
  -14.0391  -24.8256  -27.6689 H   0  0  0  0  0  0  0  0  0  0  0  0
  -13.0770  -24.7587  -25.6007 H   0  0  0  0  0  0  0  0  0  0  0  0
  -12.5159  -23.0858  -25.9368 H   0  0  0  0  0  0  0  0  0  0  0  0
  -13.5665  -23.4126  -24.5169 H   0  0  0  0  0  0  0  0  0  0  0  0
  -16.7820  -14.9454  -26.1152 H   0  0  0  0  0  0  0  0  0  0  0  0
  -15.3802  -11.6787  -26.0171 H   0  0  0  0  0  0  0  0  0  0  0  0
  -14.2050  -12.5607  -28.0038 H   0  0  0  0  0  0  0  0  0  0  0  0
  1  2  2  0  0  0  0
  1  3  1  0  0  0  0
  1 11  1  0  0  0  0
  2  4  1  0  0  0  0
  3  5  2  0  0  0  0
  4  7  2  0  0  0  0
  5  7  1  0  0  0  0
  6 11  1  0  0  0  0
  6 16  2  0  0  0  0
  7  8  1  0  0  0  0
  8 13  1  0  0  0  0
  8 14  1  0  0  0  0
  8 15  1  0  0  0  0
  9 10  1  0  0  0  0
  9 12  2  0  0  0  0
  9 17  1  0  0  0  0
 10 11  2  0  0  0  0
 16 17  1  0  0  0  0
 16 21  1  0  0  0  0
 17 18  1  0  0  0  0
 18 19  2  0  0  0  0
 18 23  1  0  0  0  0
 19 20  1  0  0  0  0
 20 21  2  0  0  0  0
 21 22  1  0  0  0  0
  2 24  1  0  0  0  0
  3 25  1  0  0  0  0
  4 26  1  0  0  0  0
  5 27  1  0  0  0  0
 13 28  1  0  0  0  0
 13 29  1  0  0  0  0
 13 30  1  0  0  0  0
 14 31  1  0  0  0  0
 15 32  1  0  0  0  0
 15 33  1  0  0  0  0
 15 34  1  0  0  0  0
 17 35  1  0  0  0  0
 19 36  1  0  0  0  0
 20 37  1  0  0  0  0
M  END
> <Name>
5l

> <IC50[nM]>
40

$$$$
5l
  -OEChem-05192314333D
 Structure written by MMmdl.
 37 39  0     0  0  0  0  0  0999 V2000
  -15.3002  -19.2006  -26.0265 C   0  0  0  0  0  0  0  0  0  0  0  0
  -15.7139  -20.0866  -25.0199 C   0  0  0  0  0  0  0  0  0  0  0  0
  -14.7328  -19.7204  -27.1959 C   0  0  0  0  0  0  0  0  0  0  0  0
  -15.5262  -21.4548  -25.1704 C   0  0  0  0  0  0  0  0  0  0  0  0
  -14.5510  -21.0858  -27.3440 C   0  0  0  0  0  0  0  0  0  0  0  0
  -14.9761  -16.8867  -26.7340 N   0  0  0  0  0  0  0  0  0  0  0  0
  -14.9308  -21.9629  -26.3290 C   0  0  0  0  0  0  0  0  0  0  0  0
  -14.5881  -23.4511  -26.4179 C   0  0  0  0  0  0  0  0  0  0  0  0
  -16.5444  -15.9689  -24.5640 C   0  0  0  0  0  0  0  0  0  0  0  0
  -16.1761  -17.2463  -24.8220 N   0  0  0  0  0  0  0  0  0  0  0  0
  -15.4513  -17.7394  -25.8850 C   0  0  0  0  0  0  0  0  0  0  0  0
  -17.3758  -15.7040  -23.6992 O   0  0  0  0  0  0  0  0  0  0  0  0
  -15.7761  -24.3593  -26.0992 C   0  0  0  0  0  0  0  0  0  0  0  0
  -14.2360  -23.8967  -27.6992 O   0  0  0  0  0  0  0  0  0  0  0  0
  -13.3505  -23.6941  -25.5581 C   0  0  0  0  0  0  0  0  0  0  0  0
  -15.1508  -15.4985  -26.5840 C   0  0  0  0  0  0  0  0  0  0  0  0
  -15.8726  -14.9888  -25.4979 C   0  0  0  0  0  0  0  0  0  0  0  0
  -15.9461  -13.6145  -25.2800 C   0  0  0  0  0  0  0  0  0  0  0  0
  -15.3326  -12.7448  -26.1831 C   0  0  0  0  0  0  0  0  0  0  0  0
  -14.6579  -13.2427  -27.2994 C   0  0  0  0  0  0  0  0  0  0  0  0
  -14.5674  -14.6209  -27.5072 C   0  0  0  0  0  0  0  0  0  0  0  0
  -13.8810  -15.0871  -28.5782 F   0  0  0  0  0  0  0  0  0  0  0  0
  -16.5760  -13.1269  -24.1896 F   0  0  0  0  0  0  0  0  0  0  0  0
  -16.1802  -19.7031  -24.1244 H   0  0  0  0  0  0  0  0  0  0  0  0
  -14.4342  -19.0513  -27.9894 H   0  0  0  0  0  0  0  0  0  0  0  0
  -15.8418  -22.1295  -24.3884 H   0  0  0  0  0  0  0  0  0  0  0  0
  -14.1122  -21.4733  -28.2516 H   0  0  0  0  0  0  0  0  0  0  0  0
  -15.4660  -25.4116  -26.1802 H   0  0  0  0  0  0  0  0  0  0  0  0
  -16.1271  -24.1583  -25.0763 H   0  0  0  0  0  0  0  0  0  0  0  0
  -16.5904  -24.1613  -26.8118 H   0  0  0  0  0  0  0  0  0  0  0  0
  -14.0391  -24.8256  -27.6689 H   0  0  0  0  0  0  0  0  0  0  0  0
  -13.0770  -24.7587  -25.6007 H   0  0  0  0  0  0  0  0  0  0  0  0
  -12.5159  -23.0858  -25.9368 H   0  0  0  0  0  0  0  0  0  0  0  0
  -13.5665  -23.4126  -24.5169 H   0  0  0  0  0  0  0  0  0  0  0  0
  -16.1204  -12.0775  -26.5627 H   0  0  0  0  0  0  0  0  0  0  0  0
  -14.6008  -12.1583  -25.6082 H   0  0  0  0  0  0  0  0  0  0  0  0
  -14.2050  -12.5607  -28.0038 H   0  0  0  0  0  0  0  0  0  0  0  0
  1  2  2  0  0  0  0
  1  3  1  0  0  0  0
  1 11  1  0  0  0  0
  2  4  1  0  0  0  0
  3  5  2  0  0  0  0
  4  7  2  0  0  0  0
  5  7  1  0  0  0  0
  6 11  1  0  0  0  0
  6 16  2  0  0  0  0
  7  8  1  0  0  0  0
  8 13  1  0  0  0  0
  8 14  1  0  0  0  0
  8 15  1  0  0  0  0
  9 10  1  0  0  0  0
  9 12  2  0  0  0  0
  9 17  1  0  0  0  0
 10 11  2  0  0  0  0
 16 17  1  0  0  0  0
 16 21  1  0  0  0  0
 17 18  2  0  0  0  0
 18 19  1  0  0  0  0
 18 23  1  0  0  0  0
 19 20  1  0  0  0  0
 20 21  2  0  0  0  0
 21 22  1  0  0  0  0
  2 24  1  0  0  0  0
  3 25  1  0  0  0  0
  4 26  1  0  0  0  0
  5 27  1  0  0  0  0
 13 28  1  0  0  0  0
 13 29  1  0  0  0  0
 13 30  1  0  0  0  0
 14 31  1  0  0  0  0
 15 32  1  0  0  0  0
 15 33  1  0  0  0  0
 15 34  1  0  0  0  0
 19 35  1  0  0  0  0
 19 36  1  0  0  0  0
 20 37  1  0  0  0  0
M  END
> <Name>
5l

> <IC50[nM]>
40

$$$$
