5o
  -OEChem-05192314333D
 Structure written by MMmdl.
 47 49  0     0  0  0  0  0  0999 V2000
  -15.3450  -19.1365  -26.0277 C   0  0  0  0  0  0  0  0  0  0  0  0
  -15.8287  -20.0041  -25.0403 C   0  0  0  0  0  0  0  0  0  0  0  0
  -14.6494  -19.6781  -27.1161 C   0  0  0  0  0  0  0  0  0  0  0  0
  -15.6114  -21.3734  -25.1437 C   0  0  0  0  0  0  0  0  0  0  0  0
  -14.4534  -21.0504  -27.2249 C   0  0  0  0  0  0  0  0  0  0  0  0
  -15.0797  -16.8396  -26.7962 N   0  0  0  0  0  0  0  0  0  0  0  0
  -14.9411  -21.9202  -26.2491 C   0  0  0  0  0  0  0  0  0  0  0  0
  -14.7174  -23.4472  -26.3565 C   0  0  0  0  0  0  0  0  0  0  0  0
  -15.2121  -15.4451  -26.6641 C   0  0  0  0  0  0  0  0  0  0  0  0
  -15.8856  -14.9026  -25.5597 C   0  0  0  0  0  0  0  0  0  0  0  0
  -15.4771  -12.6758  -26.3957 C   0  0  0  0  0  0  0  0  0  0  0  0
  -14.8064  -13.2106  -27.4898 C   0  0  0  0  0  0  0  0  0  0  0  0
  -16.0203  -13.5169  -25.4209 C   0  0  0  0  0  0  0  0  0  0  0  0
  -14.6721  -14.5903  -27.6396 C   0  0  0  0  0  0  0  0  0  0  0  0
  -16.4601  -15.8518  -24.5285 C   0  0  0  0  0  0  0  0  0  0  0  0
  -16.2181  -17.1526  -24.8371 N   0  0  0  0  0  0  0  0  0  0  0  0
  -15.5316  -17.6723  -25.9177 C   0  0  0  0  0  0  0  0  0  0  0  0
  -17.0968  -15.5416  -23.5233 O   0  0  0  0  0  0  0  0  0  0  0  0
  -16.0886  -24.1459  -26.3732 C   0  0  0  0  0  0  0  0  0  0  0  0
  -13.9745  -23.7493  -27.5590 O   0  0  0  0  0  0  0  0  0  0  0  0
  -13.8348  -23.8741  -25.1800 C   0  0  0  0  0  0  0  0  0  0  0  0
  -13.9391  -15.1231  -28.8574 C   0  0  0  0  0  0  0  0  0  0  0  0
  -15.6115  -11.3343  -26.3138 F   0  0  0  0  0  0  0  0  0  0  0  0
  -12.5786  -23.4229  -27.6930 C   0  0  0  0  0  0  0  0  0  0  0  0
  -11.5993  -24.0909  -26.7047 C   0  0  0  0  0  0  0  0  0  0  0  0
  -10.2664  -23.7087  -26.9378 O   0  0  0  0  0  0  0  0  0  0  0  0
  -16.3725  -19.6079  -24.1955 H   0  0  0  0  0  0  0  0  0  0  0  0
  -14.2604  -19.0216  -27.8804 H   0  0  0  0  0  0  0  0  0  0  0  0
  -15.9644  -22.0275  -24.3601 H   0  0  0  0  0  0  0  0  0  0  0  0
  -13.9176  -21.4475  -28.0744 H   0  0  0  0  0  0  0  0  0  0  0  0
  -14.3845  -12.5496  -28.2324 H   0  0  0  0  0  0  0  0  0  0  0  0
  -16.5387  -13.1017  -24.5693 H   0  0  0  0  0  0  0  0  0  0  0  0
  -16.5868  -17.8250  -24.1952 H   0  0  0  0  0  0  0  0  0  0  0  0
  -15.9454  -25.2339  -26.4494 H   0  0  0  0  0  0  0  0  0  0  0  0
  -16.6307  -23.9116  -25.4452 H   0  0  0  0  0  0  0  0  0  0  0  0
  -16.6701  -23.7914  -27.2370 H   0  0  0  0  0  0  0  0  0  0  0  0
  -13.6572  -24.9586  -25.2288 H   0  0  0  0  0  0  0  0  0  0  0  0
  -12.8731  -23.3425  -25.2314 H   0  0  0  0  0  0  0  0  0  0  0  0
  -14.3399  -23.6275  -24.2345 H   0  0  0  0  0  0  0  0  0  0  0  0
  -14.6558  -15.2833  -29.6764 H   0  0  0  0  0  0  0  0  0  0  0  0
  -13.1773  -14.3955  -29.1741 H   0  0  0  0  0  0  0  0  0  0  0  0
  -13.4526  -16.0766  -28.6043 H   0  0  0  0  0  0  0  0  0  0  0  0
  -12.2684  -23.7075  -28.7093 H   0  0  0  0  0  0  0  0  0  0  0  0
  -12.4803  -22.3341  -27.5710 H   0  0  0  0  0  0  0  0  0  0  0  0
  -11.8770  -23.8012  -25.6805 H   0  0  0  0  0  0  0  0  0  0  0  0
  -11.6785  -25.1829  -26.8111 H   0  0  0  0  0  0  0  0  0  0  0  0
   -9.6984  -24.1404  -26.3105 H   0  0  0  0  0  0  0  0  0  0  0  0
  1  2  2  0  0  0  0
  1  3  1  0  0  0  0
  1 17  1  0  0  0  0
  2  4  1  0  0  0  0
  3  5  2  0  0  0  0
  4  7  2  0  0  0  0
  5  7  1  0  0  0  0
  6  9  1  0  0  0  0
  6 17  2  0  0  0  0
  7  8  1  0  0  0  0
  8 19  1  0  0  0  0
  8 20  1  0  0  0  0
  8 21  1  0  0  0  0
  9 10  2  0  0  0  0
  9 14  1  0  0  0  0
 10 13  1  0  0  0  0
 10 15  1  0  0  0  0
 11 12  1  0  0  0  0
 11 13  2  0  0  0  0
 11 23  1  0  0  0  0
 12 14  2  0  0  0  0
 14 22  1  0  0  0  0
 15 16  1  0  0  0  0
 15 18  2  0  0  0  0
 16 17  1  0  0  0  0
 20 24  1  0  0  0  0
 24 25  1  0  0  0  0
 25 26  1  0  0  0  0
  2 27  1  0  0  0  0
  3 28  1  0  0  0  0
  4 29  1  0  0  0  0
  5 30  1  0  0  0  0
 12 31  1  0  0  0  0
 13 32  1  0  0  0  0
 16 33  1  0  0  0  0
 19 34  1  0  0  0  0
 19 35  1  0  0  0  0
 19 36  1  0  0  0  0
 21 37  1  0  0  0  0
 21 38  1  0  0  0  0
 21 39  1  0  0  0  0
 22 40  1  0  0  0  0
 22 41  1  0  0  0  0
 22 42  1  0  0  0  0
 24 43  1  0  0  0  0
 24 44  1  0  0  0  0
 25 45  1  0  0  0  0
 25 46  1  0  0  0  0
 26 47  1  0  0  0  0
M  END
> <Name>
5o

> <IC50[nM]>
1.5

$$$$
5o
  -OEChem-05192314333D
 Structure written by MMmdl.
 47 49  0     0  0  0  0  0  0999 V2000
  -15.3450  -19.1365  -26.0277 C   0  0  0  0  0  0  0  0  0  0  0  0
  -15.8287  -20.0041  -25.0403 C   0  0  0  0  0  0  0  0  0  0  0  0
  -14.6494  -19.6781  -27.1161 C   0  0  0  0  0  0  0  0  0  0  0  0
  -15.6114  -21.3734  -25.1437 C   0  0  0  0  0  0  0  0  0  0  0  0
  -14.4534  -21.0504  -27.2249 C   0  0  0  0  0  0  0  0  0  0  0  0
  -15.0797  -16.8396  -26.7962 N   0  0  0  0  0  0  0  0  0  0  0  0
  -14.9411  -21.9202  -26.2491 C   0  0  0  0  0  0  0  0  0  0  0  0
  -14.7174  -23.4472  -26.3565 C   0  0  0  0  0  0  0  0  0  0  0  0
  -15.2121  -15.4451  -26.6641 C   0  0  0  0  0  0  0  0  0  0  0  0
  -15.8856  -14.9026  -25.5597 C   0  0  0  0  0  0  0  0  0  0  0  0
  -15.4771  -12.6758  -26.3957 C   0  0  0  0  0  0  0  0  0  0  0  0
  -14.8064  -13.2106  -27.4898 C   0  0  0  0  0  0  0  0  0  0  0  0
  -16.0203  -13.5169  -25.4209 C   0  0  0  0  0  0  0  0  0  0  0  0
  -14.6721  -14.5903  -27.6396 C   0  0  0  0  0  0  0  0  0  0  0  0
  -16.4601  -15.8518  -24.5285 C   0  0  0  0  0  0  0  0  0  0  0  0
  -16.2181  -17.1526  -24.8371 N   0  0  0  0  0  0  0  0  0  0  0  0
  -15.5316  -17.6723  -25.9177 C   0  0  0  0  0  0  0  0  0  0  0  0
  -17.0968  -15.5416  -23.5233 O   0  0  0  0  0  0  0  0  0  0  0  0
  -16.0886  -24.1459  -26.3732 C   0  0  0  0  0  0  0  0  0  0  0  0
  -13.9745  -23.7493  -27.5590 O   0  0  0  0  0  0  0  0  0  0  0  0
  -13.8348  -23.8741  -25.1800 C   0  0  0  0  0  0  0  0  0  0  0  0
  -13.9391  -15.1231  -28.8574 C   0  0  0  0  0  0  0  0  0  0  0  0
  -15.6115  -11.3343  -26.3138 F   0  0  0  0  0  0  0  0  0  0  0  0
  -12.5786  -23.4229  -27.6930 C   0  0  0  0  0  0  0  0  0  0  0  0
  -11.5993  -24.0909  -26.7047 C   0  0  0  0  0  0  0  0  0  0  0  0
  -10.2664  -23.7087  -26.9378 O   0  0  0  0  0  0  0  0  0  0  0  0
  -16.3725  -19.6079  -24.1955 H   0  0  0  0  0  0  0  0  0  0  0  0
  -14.2604  -19.0216  -27.8804 H   0  0  0  0  0  0  0  0  0  0  0  0
  -15.9644  -22.0275  -24.3601 H   0  0  0  0  0  0  0  0  0  0  0  0
  -13.9176  -21.4475  -28.0744 H   0  0  0  0  0  0  0  0  0  0  0  0
  -14.6159  -17.2018  -27.6047 H   0  0  0  0  0  0  0  0  0  0  0  0
  -14.3845  -12.5496  -28.2324 H   0  0  0  0  0  0  0  0  0  0  0  0
  -16.5387  -13.1017  -24.5693 H   0  0  0  0  0  0  0  0  0  0  0  0
  -15.9454  -25.2339  -26.4494 H   0  0  0  0  0  0  0  0  0  0  0  0
  -16.6307  -23.9116  -25.4452 H   0  0  0  0  0  0  0  0  0  0  0  0
  -16.6701  -23.7914  -27.2370 H   0  0  0  0  0  0  0  0  0  0  0  0
  -13.6572  -24.9586  -25.2288 H   0  0  0  0  0  0  0  0  0  0  0  0
  -12.8731  -23.3425  -25.2314 H   0  0  0  0  0  0  0  0  0  0  0  0
  -14.3399  -23.6275  -24.2345 H   0  0  0  0  0  0  0  0  0  0  0  0
  -14.6558  -15.2833  -29.6764 H   0  0  0  0  0  0  0  0  0  0  0  0
  -13.1773  -14.3955  -29.1741 H   0  0  0  0  0  0  0  0  0  0  0  0
  -13.4526  -16.0766  -28.6043 H   0  0  0  0  0  0  0  0  0  0  0  0
  -12.2684  -23.7075  -28.7093 H   0  0  0  0  0  0  0  0  0  0  0  0
  -12.4803  -22.3341  -27.5710 H   0  0  0  0  0  0  0  0  0  0  0  0
  -11.8770  -23.8012  -25.6805 H   0  0  0  0  0  0  0  0  0  0  0  0
  -11.6785  -25.1829  -26.8111 H   0  0  0  0  0  0  0  0  0  0  0  0
   -9.6984  -24.1404  -26.3105 H   0  0  0  0  0  0  0  0  0  0  0  0
  1  2  2  0  0  0  0
  1  3  1  0  0  0  0
  1 17  1  0  0  0  0
  2  4  1  0  0  0  0
  3  5  2  0  0  0  0
  4  7  2  0  0  0  0
  5  7  1  0  0  0  0
  6  9  1  0  0  0  0
  6 17  1  0  0  0  0
  7  8  1  0  0  0  0
  8 19  1  0  0  0  0
  8 20  1  0  0  0  0
  8 21  1  0  0  0  0
  9 10  2  0  0  0  0
  9 14  1  0  0  0  0
 10 13  1  0  0  0  0
 10 15  1  0  0  0  0
 11 12  1  0  0  0  0
 11 13  2  0  0  0  0
 11 23  1  0  0  0  0
 12 14  2  0  0  0  0
 14 22  1  0  0  0  0
 15 16  1  0  0  0  0
 15 18  2  0  0  0  0
 16 17  2  0  0  0  0
 20 24  1  0  0  0  0
 24 25  1  0  0  0  0
 25 26  1  0  0  0  0
  2 27  1  0  0  0  0
  3 28  1  0  0  0  0
  4 29  1  0  0  0  0
  5 30  1  0  0  0  0
  6 31  1  0  0  0  0
 12 32  1  0  0  0  0
 13 33  1  0  0  0  0
 19 34  1  0  0  0  0
 19 35  1  0  0  0  0
 19 36  1  0  0  0  0
 21 37  1  0  0  0  0
 21 38  1  0  0  0  0
 21 39  1  0  0  0  0
 22 40  1  0  0  0  0
 22 41  1  0  0  0  0
 22 42  1  0  0  0  0
 24 43  1  0  0  0  0
 24 44  1  0  0  0  0
 25 45  1  0  0  0  0
 25 46  1  0  0  0  0
 26 47  1  0  0  0  0
M  END
> <Name>
5o

> <IC50[nM]>
1.5

$$$$
5o
  -OEChem-05192314333D
 Structure written by MMmdl.
 47 49  0     0  0  0  0  0  0999 V2000
  -15.3450  -19.1365  -26.0277 C   0  0  0  0  0  0  0  0  0  0  0  0
  -15.8287  -20.0041  -25.0403 C   0  0  0  0  0  0  0  0  0  0  0  0
  -14.6494  -19.6781  -27.1161 C   0  0  0  0  0  0  0  0  0  0  0  0
  -15.6114  -21.3734  -25.1437 C   0  0  0  0  0  0  0  0  0  0  0  0
  -14.4534  -21.0504  -27.2249 C   0  0  0  0  0  0  0  0  0  0  0  0
  -15.0797  -16.8396  -26.7962 N   0  0  0  0  0  0  0  0  0  0  0  0
  -14.9411  -21.9202  -26.2491 C   0  0  0  0  0  0  0  0  0  0  0  0
  -14.7174  -23.4472  -26.3565 C   0  0  0  0  0  0  0  0  0  0  0  0
  -15.2121  -15.4451  -26.6641 C   0  0  0  0  0  0  0  0  0  0  0  0
  -15.8856  -14.9026  -25.5597 C   0  0  0  0  0  0  0  0  0  0  0  0
  -15.4771  -12.6758  -26.3957 C   0  0  0  0  0  0  0  0  0  0  0  0
  -14.8064  -13.2106  -27.4898 C   0  0  0  0  0  0  0  0  0  0  0  0
  -16.0203  -13.5169  -25.4209 C   0  0  0  0  0  0  0  0  0  0  0  0
  -14.6721  -14.5903  -27.6396 C   0  0  0  0  0  0  0  0  0  0  0  0
  -16.4601  -15.8518  -24.5285 C   0  0  0  0  0  0  0  0  0  0  0  0
  -16.2181  -17.1526  -24.8371 N   0  0  0  0  0  0  0  0  0  0  0  0
  -15.5316  -17.6723  -25.9177 C   0  0  0  0  0  0  0  0  0  0  0  0
  -17.0968  -15.5416  -23.5233 O   0  0  0  0  0  0  0  0  0  0  0  0
  -16.0886  -24.1459  -26.3732 C   0  0  0  0  0  0  0  0  0  0  0  0
  -13.9745  -23.7493  -27.5590 O   0  0  0  0  0  0  0  0  0  0  0  0
  -13.8348  -23.8741  -25.1800 C   0  0  0  0  0  0  0  0  0  0  0  0
  -13.9391  -15.1231  -28.8574 C   0  0  0  0  0  0  0  0  0  0  0  0
  -15.6115  -11.3343  -26.3138 F   0  0  0  0  0  0  0  0  0  0  0  0
  -12.5786  -23.4229  -27.6930 C   0  0  0  0  0  0  0  0  0  0  0  0
  -11.5993  -24.0909  -26.7047 C   0  0  0  0  0  0  0  0  0  0  0  0
  -10.2664  -23.7087  -26.9378 O   0  0  0  0  0  0  0  0  0  0  0  0
  -16.3725  -19.6079  -24.1955 H   0  0  0  0  0  0  0  0  0  0  0  0
  -14.2604  -19.0216  -27.8804 H   0  0  0  0  0  0  0  0  0  0  0  0
  -15.9644  -22.0275  -24.3601 H   0  0  0  0  0  0  0  0  0  0  0  0
  -13.9176  -21.4475  -28.0744 H   0  0  0  0  0  0  0  0  0  0  0  0
  -14.3845  -12.5496  -28.2324 H   0  0  0  0  0  0  0  0  0  0  0  0
  -16.5387  -13.1017  -24.5693 H   0  0  0  0  0  0  0  0  0  0  0  0
  -17.3562  -16.3277  -23.0571 H   0  0  0  0  0  0  0  0  0  0  0  0
  -15.9454  -25.2339  -26.4494 H   0  0  0  0  0  0  0  0  0  0  0  0
  -16.6307  -23.9116  -25.4452 H   0  0  0  0  0  0  0  0  0  0  0  0
  -16.6701  -23.7914  -27.2370 H   0  0  0  0  0  0  0  0  0  0  0  0
  -13.6572  -24.9586  -25.2288 H   0  0  0  0  0  0  0  0  0  0  0  0
  -12.8731  -23.3425  -25.2314 H   0  0  0  0  0  0  0  0  0  0  0  0
  -14.3399  -23.6275  -24.2345 H   0  0  0  0  0  0  0  0  0  0  0  0
  -14.6558  -15.2833  -29.6764 H   0  0  0  0  0  0  0  0  0  0  0  0
  -13.1773  -14.3955  -29.1741 H   0  0  0  0  0  0  0  0  0  0  0  0
  -13.4526  -16.0766  -28.6043 H   0  0  0  0  0  0  0  0  0  0  0  0
  -12.2684  -23.7075  -28.7093 H   0  0  0  0  0  0  0  0  0  0  0  0
  -12.4803  -22.3341  -27.5710 H   0  0  0  0  0  0  0  0  0  0  0  0
  -11.8770  -23.8012  -25.6805 H   0  0  0  0  0  0  0  0  0  0  0  0
  -11.6785  -25.1829  -26.8111 H   0  0  0  0  0  0  0  0  0  0  0  0
   -9.6984  -24.1404  -26.3105 H   0  0  0  0  0  0  0  0  0  0  0  0
  1  2  2  0  0  0  0
  1  3  1  0  0  0  0
  1 17  1  0  0  0  0
  2  4  1  0  0  0  0
  3  5  2  0  0  0  0
  4  7  2  0  0  0  0
  5  7  1  0  0  0  0
  6  9  2  0  0  0  0
  6 17  1  0  0  0  0
  7  8  1  0  0  0  0
  8 19  1  0  0  0  0
  8 20  1  0  0  0  0
  8 21  1  0  0  0  0
  9 10  1  0  0  0  0
  9 14  1  0  0  0  0
 10 13  1  0  0  0  0
 10 15  2  0  0  0  0
 11 12  1  0  0  0  0
 11 13  2  0  0  0  0
 11 23  1  0  0  0  0
 12 14  2  0  0  0  0
 14 22  1  0  0  0  0
 15 16  1  0  0  0  0
 15 18  1  0  0  0  0
 16 17  2  0  0  0  0
 20 24  1  0  0  0  0
 24 25  1  0  0  0  0
 25 26  1  0  0  0  0
  2 27  1  0  0  0  0
  3 28  1  0  0  0  0
  4 29  1  0  0  0  0
  5 30  1  0  0  0  0
 12 31  1  0  0  0  0
 13 32  1  0  0  0  0
 18 33  1  0  0  0  0
 19 34  1  0  0  0  0
 19 35  1  0  0  0  0
 19 36  1  0  0  0  0
 21 37  1  0  0  0  0
 21 38  1  0  0  0  0
 21 39  1  0  0  0  0
 22 40  1  0  0  0  0
 22 41  1  0  0  0  0
 22 42  1  0  0  0  0
 24 43  1  0  0  0  0
 24 44  1  0  0  0  0
 25 45  1  0  0  0  0
 25 46  1  0  0  0  0
 26 47  1  0  0  0  0
M  END
> <Name>
5o

> <IC50[nM]>
1.5

$$$$
5o
  -OEChem-05192314333D
 Structure written by MMmdl.
 47 49  0     1  0  0  0  0  0999 V2000
  -15.3450  -19.1365  -26.0277 C   0  0  0  0  0  0  0  0  0  0  0  0
  -15.8287  -20.0041  -25.0403 C   0  0  0  0  0  0  0  0  0  0  0  0
  -14.6494  -19.6781  -27.1161 C   0  0  0  0  0  0  0  0  0  0  0  0
  -15.6114  -21.3734  -25.1437 C   0  0  0  0  0  0  0  0  0  0  0  0
  -14.4534  -21.0504  -27.2249 C   0  0  0  0  0  0  0  0  0  0  0  0
  -15.0797  -16.8396  -26.7962 N   0  0  0  0  0  0  0  0  0  0  0  0
  -14.9411  -21.9202  -26.2491 C   0  0  0  0  0  0  0  0  0  0  0  0
  -14.7174  -23.4472  -26.3565 C   0  0  0  0  0  0  0  0  0  0  0  0
  -15.2121  -15.4451  -26.6641 C   0  0  0  0  0  0  0  0  0  0  0  0
  -15.8856  -14.9026  -25.5597 C   0  0  0  0  0  0  0  0  0  0  0  0
  -15.4771  -12.6758  -26.3957 C   0  0  3  0  0  0  0  0  0  0  0  0
  -14.8064  -13.2106  -27.4898 C   0  0  0  0  0  0  0  0  0  0  0  0
  -16.0203  -13.5169  -25.4209 C   0  0  0  0  0  0  0  0  0  0  0  0
  -14.6721  -14.5903  -27.6396 C   0  0  0  0  0  0  0  0  0  0  0  0
  -16.4601  -15.8518  -24.5285 C   0  0  0  0  0  0  0  0  0  0  0  0
  -16.2181  -17.1526  -24.8371 N   0  0  0  0  0  0  0  0  0  0  0  0
  -15.5316  -17.6723  -25.9177 C   0  0  0  0  0  0  0  0  0  0  0  0
  -17.0968  -15.5416  -23.5233 O   0  0  0  0  0  0  0  0  0  0  0  0
  -16.0886  -24.1459  -26.3732 C   0  0  0  0  0  0  0  0  0  0  0  0
  -13.9745  -23.7493  -27.5590 O   0  0  0  0  0  0  0  0  0  0  0  0
  -13.8348  -23.8741  -25.1800 C   0  0  0  0  0  0  0  0  0  0  0  0
  -13.9391  -15.1231  -28.8574 C   0  0  0  0  0  0  0  0  0  0  0  0
  -15.6115  -11.3343  -26.3138 F   0  0  0  0  0  0  0  0  0  0  0  0
  -12.5786  -23.4229  -27.6930 C   0  0  0  0  0  0  0  0  0  0  0  0
  -11.5993  -24.0909  -26.7047 C   0  0  0  0  0  0  0  0  0  0  0  0
  -10.2664  -23.7087  -26.9378 O   0  0  0  0  0  0  0  0  0  0  0  0
  -16.3725  -19.6079  -24.1955 H   0  0  0  0  0  0  0  0  0  0  0  0
  -14.2604  -19.0216  -27.8804 H   0  0  0  0  0  0  0  0  0  0  0  0
  -15.9644  -22.0275  -24.3601 H   0  0  0  0  0  0  0  0  0  0  0  0
  -13.9176  -21.4475  -28.0744 H   0  0  0  0  0  0  0  0  0  0  0  0
  -14.5329  -12.6228  -25.8339 H   0  0  0  0  0  0  0  0  0  0  0  0
  -14.3845  -12.5496  -28.2324 H   0  0  0  0  0  0  0  0  0  0  0  0
  -16.5387  -13.1017  -24.5693 H   0  0  0  0  0  0  0  0  0  0  0  0
  -15.9454  -25.2339  -26.4494 H   0  0  0  0  0  0  0  0  0  0  0  0
  -16.6307  -23.9116  -25.4452 H   0  0  0  0  0  0  0  0  0  0  0  0
  -16.6701  -23.7914  -27.2370 H   0  0  0  0  0  0  0  0  0  0  0  0
  -13.6572  -24.9586  -25.2288 H   0  0  0  0  0  0  0  0  0  0  0  0
  -12.8731  -23.3425  -25.2314 H   0  0  0  0  0  0  0  0  0  0  0  0
  -14.3399  -23.6275  -24.2345 H   0  0  0  0  0  0  0  0  0  0  0  0
  -13.6043  -14.2816  -29.4817 H   0  0  0  0  0  0  0  0  0  0  0  0
  -13.0663  -15.7086  -28.5328 H   0  0  0  0  0  0  0  0  0  0  0  0
  -14.6154  -15.7656  -29.4403 H   0  0  0  0  0  0  0  0  0  0  0  0
  -12.2684  -23.7075  -28.7093 H   0  0  0  0  0  0  0  0  0  0  0  0
  -12.4803  -22.3341  -27.5710 H   0  0  0  0  0  0  0  0  0  0  0  0
  -11.8770  -23.8012  -25.6805 H   0  0  0  0  0  0  0  0  0  0  0  0
  -11.6785  -25.1829  -26.8111 H   0  0  0  0  0  0  0  0  0  0  0  0
   -9.6984  -24.1404  -26.3105 H   0  0  0  0  0  0  0  0  0  0  0  0
  1  2  2  0  0  0  0
  1  3  1  0  0  0  0
  1 17  1  0  0  0  0
  2  4  1  0  0  0  0
  3  5  2  0  0  0  0
  4  7  2  0  0  0  0
  5  7  1  0  0  0  0
  6  9  2  0  0  0  0
  6 17  1  0  0  0  0
  7  8  1  0  0  0  0
  8 19  1  0  0  0  0
  8 20  1  0  0  0  0
  8 21  1  0  0  0  0
  9 10  1  0  0  0  0
  9 14  1  0  0  0  0
 10 13  2  0  0  0  0
 10 15  1  0  0  0  0
 11 12  1  0  0  0  0
 11 13  1  0  0  0  0
 11 23  1  0  0  0  0
 12 14  2  0  0  0  0
 14 22  1  0  0  0  0
 15 16  1  0  0  0  0
 15 18  2  0  0  0  0
 16 17  2  0  0  0  0
 20 24  1  0  0  0  0
 24 25  1  0  0  0  0
 25 26  1  0  0  0  0
  2 27  1  0  0  0  0
  3 28  1  0  0  0  0
  4 29  1  0  0  0  0
  5 30  1  0  0  0  0
 11 31  1  0  0  0  0
 12 32  1  0  0  0  0
 13 33  1  0  0  0  0
 19 34  1  0  0  0  0
 19 35  1  0  0  0  0
 19 36  1  0  0  0  0
 21 37  1  0  0  0  0
 21 38  1  0  0  0  0
 21 39  1  0  0  0  0
 22 40  1  0  0  0  0
 22 41  1  0  0  0  0
 22 42  1  0  0  0  0
 24 43  1  0  0  0  0
 24 44  1  0  0  0  0
 25 45  1  0  0  0  0
 25 46  1  0  0  0  0
 26 47  1  0  0  0  0
M  END
> <Name>
5o

> <IC50[nM]>
1.5

$$$$
5o
  -OEChem-05192314333D
 Structure written by MMmdl.
 47 49  0     1  0  0  0  0  0999 V2000
  -15.3450  -19.1365  -26.0277 C   0  0  0  0  0  0  0  0  0  0  0  0
  -15.8287  -20.0041  -25.0403 C   0  0  0  0  0  0  0  0  0  0  0  0
  -14.6494  -19.6781  -27.1161 C   0  0  0  0  0  0  0  0  0  0  0  0
  -15.6114  -21.3734  -25.1437 C   0  0  0  0  0  0  0  0  0  0  0  0
  -14.4534  -21.0504  -27.2249 C   0  0  0  0  0  0  0  0  0  0  0  0
  -15.0797  -16.8396  -26.7962 N   0  0  0  0  0  0  0  0  0  0  0  0
  -14.9411  -21.9202  -26.2491 C   0  0  0  0  0  0  0  0  0  0  0  0
  -14.7174  -23.4472  -26.3565 C   0  0  0  0  0  0  0  0  0  0  0  0
  -15.2121  -15.4451  -26.6641 C   0  0  0  0  0  0  0  0  0  0  0  0
  -15.8856  -14.9026  -25.5597 C   0  0  0  0  0  0  0  0  0  0  0  0
  -15.4771  -12.6758  -26.3957 C   0  0  0  0  0  0  0  0  0  0  0  0
  -14.8064  -13.2106  -27.4898 C   0  0  0  0  0  0  0  0  0  0  0  0
  -16.0203  -13.5169  -25.4209 C   0  0  0  0  0  0  0  0  0  0  0  0
  -14.6721  -14.5903  -27.6396 C   0  0  3  0  0  0  0  0  0  0  0  0
  -16.4601  -15.8518  -24.5285 C   0  0  0  0  0  0  0  0  0  0  0  0
  -16.2181  -17.1526  -24.8371 N   0  0  0  0  0  0  0  0  0  0  0  0
  -15.5316  -17.6723  -25.9177 C   0  0  0  0  0  0  0  0  0  0  0  0
  -17.0968  -15.5416  -23.5233 O   0  0  0  0  0  0  0  0  0  0  0  0
  -16.0886  -24.1459  -26.3732 C   0  0  0  0  0  0  0  0  0  0  0  0
  -13.9745  -23.7493  -27.5590 O   0  0  0  0  0  0  0  0  0  0  0  0
  -13.8348  -23.8741  -25.1800 C   0  0  0  0  0  0  0  0  0  0  0  0
  -13.9391  -15.1231  -28.8574 C   0  0  0  0  0  0  0  0  0  0  0  0
  -15.6115  -11.3343  -26.3138 F   0  0  0  0  0  0  0  0  0  0  0  0
  -12.5786  -23.4229  -27.6930 C   0  0  0  0  0  0  0  0  0  0  0  0
  -11.5993  -24.0909  -26.7047 C   0  0  0  0  0  0  0  0  0  0  0  0
  -10.2664  -23.7087  -26.9378 O   0  0  0  0  0  0  0  0  0  0  0  0
  -16.3725  -19.6079  -24.1955 H   0  0  0  0  0  0  0  0  0  0  0  0
  -14.2604  -19.0216  -27.8804 H   0  0  0  0  0  0  0  0  0  0  0  0
  -15.9644  -22.0275  -24.3601 H   0  0  0  0  0  0  0  0  0  0  0  0
  -13.9176  -21.4475  -28.0744 H   0  0  0  0  0  0  0  0  0  0  0  0
  -14.3845  -12.5496  -28.2324 H   0  0  0  0  0  0  0  0  0  0  0  0
  -16.5387  -13.1017  -24.5693 H   0  0  0  0  0  0  0  0  0  0  0  0
  -15.6209  -14.6233  -28.1952 H   0  0  0  0  0  0  0  0  0  0  0  0
  -15.9454  -25.2339  -26.4494 H   0  0  0  0  0  0  0  0  0  0  0  0
  -16.6307  -23.9116  -25.4452 H   0  0  0  0  0  0  0  0  0  0  0  0
  -16.6701  -23.7914  -27.2370 H   0  0  0  0  0  0  0  0  0  0  0  0
  -13.6572  -24.9586  -25.2288 H   0  0  0  0  0  0  0  0  0  0  0  0
  -12.8731  -23.3425  -25.2314 H   0  0  0  0  0  0  0  0  0  0  0  0
  -14.3399  -23.6275  -24.2345 H   0  0  0  0  0  0  0  0  0  0  0  0
  -13.6043  -14.2816  -29.4817 H   0  0  0  0  0  0  0  0  0  0  0  0
  -13.0663  -15.7086  -28.5328 H   0  0  0  0  0  0  0  0  0  0  0  0
  -14.6154  -15.7656  -29.4403 H   0  0  0  0  0  0  0  0  0  0  0  0
  -12.2684  -23.7075  -28.7093 H   0  0  0  0  0  0  0  0  0  0  0  0
  -12.4803  -22.3341  -27.5710 H   0  0  0  0  0  0  0  0  0  0  0  0
  -11.8770  -23.8012  -25.6805 H   0  0  0  0  0  0  0  0  0  0  0  0
  -11.6785  -25.1829  -26.8111 H   0  0  0  0  0  0  0  0  0  0  0  0
   -9.6984  -24.1404  -26.3105 H   0  0  0  0  0  0  0  0  0  0  0  0
  1  2  2  0  0  0  0
  1  3  1  0  0  0  0
  1 17  1  0  0  0  0
  2  4  1  0  0  0  0
  3  5  2  0  0  0  0
  4  7  2  0  0  0  0
  5  7  1  0  0  0  0
  6  9  2  0  0  0  0
  6 17  1  0  0  0  0
  7  8  1  0  0  0  0
  8 19  1  0  0  0  0
  8 20  1  0  0  0  0
  8 21  1  0  0  0  0
  9 10  1  0  0  0  0
  9 14  1  0  0  0  0
 10 13  2  0  0  0  0
 10 15  1  0  0  0  0
 11 12  2  0  0  0  0
 11 13  1  0  0  0  0
 11 23  1  0  0  0  0
 12 14  1  0  0  0  0
 14 22  1  0  0  0  0
 15 16  1  0  0  0  0
 15 18  2  0  0  0  0
 16 17  2  0  0  0  0
 20 24  1  0  0  0  0
 24 25  1  0  0  0  0
 25 26  1  0  0  0  0
  2 27  1  0  0  0  0
  3 28  1  0  0  0  0
  4 29  1  0  0  0  0
  5 30  1  0  0  0  0
 12 31  1  0  0  0  0
 13 32  1  0  0  0  0
 14 33  1  0  0  0  0
 19 34  1  0  0  0  0
 19 35  1  0  0  0  0
 19 36  1  0  0  0  0
 21 37  1  0  0  0  0
 21 38  1  0  0  0  0
 21 39  1  0  0  0  0
 22 40  1  0  0  0  0
 22 41  1  0  0  0  0
 22 42  1  0  0  0  0
 24 43  1  0  0  0  0
 24 44  1  0  0  0  0
 25 45  1  0  0  0  0
 25 46  1  0  0  0  0
 26 47  1  0  0  0  0
M  END
> <Name>
5o

> <IC50[nM]>
1.5

$$$$
5o
  -OEChem-05192314333D
 Structure written by MMmdl.
 47 49  0     1  0  0  0  0  0999 V2000
  -15.3450  -19.1365  -26.0277 C   0  0  0  0  0  0  0  0  0  0  0  0
  -15.8287  -20.0041  -25.0403 C   0  0  0  0  0  0  0  0  0  0  0  0
  -14.6494  -19.6781  -27.1161 C   0  0  0  0  0  0  0  0  0  0  0  0
  -15.6114  -21.3734  -25.1437 C   0  0  0  0  0  0  0  0  0  0  0  0
  -14.4534  -21.0504  -27.2249 C   0  0  0  0  0  0  0  0  0  0  0  0
  -15.0797  -16.8396  -26.7962 N   0  0  0  0  0  0  0  0  0  0  0  0
  -14.9411  -21.9202  -26.2491 C   0  0  0  0  0  0  0  0  0  0  0  0
  -14.7174  -23.4472  -26.3565 C   0  0  0  0  0  0  0  0  0  0  0  0
  -15.2121  -15.4451  -26.6641 C   0  0  0  0  0  0  0  0  0  0  0  0
  -15.8856  -14.9026  -25.5597 C   0  0  3  0  0  0  0  0  0  0  0  0
  -15.4771  -12.6758  -26.3957 C   0  0  0  0  0  0  0  0  0  0  0  0
  -14.8064  -13.2106  -27.4898 C   0  0  0  0  0  0  0  0  0  0  0  0
  -16.0203  -13.5169  -25.4209 C   0  0  0  0  0  0  0  0  0  0  0  0
  -14.6721  -14.5903  -27.6396 C   0  0  0  0  0  0  0  0  0  0  0  0
  -16.4601  -15.8518  -24.5285 C   0  0  0  0  0  0  0  0  0  0  0  0
  -16.2181  -17.1526  -24.8371 N   0  0  0  0  0  0  0  0  0  0  0  0
  -15.5316  -17.6723  -25.9177 C   0  0  0  0  0  0  0  0  0  0  0  0
  -17.0968  -15.5416  -23.5233 O   0  0  0  0  0  0  0  0  0  0  0  0
  -16.0886  -24.1459  -26.3732 C   0  0  0  0  0  0  0  0  0  0  0  0
  -13.9745  -23.7493  -27.5590 O   0  0  0  0  0  0  0  0  0  0  0  0
  -13.8348  -23.8741  -25.1800 C   0  0  0  0  0  0  0  0  0  0  0  0
  -13.9391  -15.1231  -28.8574 C   0  0  0  0  0  0  0  0  0  0  0  0
  -15.6115  -11.3343  -26.3138 F   0  0  0  0  0  0  0  0  0  0  0  0
  -12.5786  -23.4229  -27.6930 C   0  0  0  0  0  0  0  0  0  0  0  0
  -11.5993  -24.0909  -26.7047 C   0  0  0  0  0  0  0  0  0  0  0  0
  -10.2664  -23.7087  -26.9378 O   0  0  0  0  0  0  0  0  0  0  0  0
  -16.3725  -19.6079  -24.1955 H   0  0  0  0  0  0  0  0  0  0  0  0
  -14.2604  -19.0216  -27.8804 H   0  0  0  0  0  0  0  0  0  0  0  0
  -15.9644  -22.0275  -24.3601 H   0  0  0  0  0  0  0  0  0  0  0  0
  -13.9176  -21.4475  -28.0744 H   0  0  0  0  0  0  0  0  0  0  0  0
  -14.9394  -14.8669  -24.9999 H   0  0  0  0  0  0  0  0  0  0  0  0
  -14.3845  -12.5496  -28.2324 H   0  0  0  0  0  0  0  0  0  0  0  0
  -16.5387  -13.1017  -24.5693 H   0  0  0  0  0  0  0  0  0  0  0  0
  -15.9454  -25.2339  -26.4494 H   0  0  0  0  0  0  0  0  0  0  0  0
  -16.6307  -23.9116  -25.4452 H   0  0  0  0  0  0  0  0  0  0  0  0
  -16.6701  -23.7914  -27.2370 H   0  0  0  0  0  0  0  0  0  0  0  0
  -13.6572  -24.9586  -25.2288 H   0  0  0  0  0  0  0  0  0  0  0  0
  -12.8731  -23.3425  -25.2314 H   0  0  0  0  0  0  0  0  0  0  0  0
  -14.3399  -23.6275  -24.2345 H   0  0  0  0  0  0  0  0  0  0  0  0
  -13.6043  -14.2816  -29.4817 H   0  0  0  0  0  0  0  0  0  0  0  0
  -13.0663  -15.7086  -28.5328 H   0  0  0  0  0  0  0  0  0  0  0  0
  -14.6154  -15.7656  -29.4403 H   0  0  0  0  0  0  0  0  0  0  0  0
  -12.2684  -23.7075  -28.7093 H   0  0  0  0  0  0  0  0  0  0  0  0
  -12.4803  -22.3341  -27.5710 H   0  0  0  0  0  0  0  0  0  0  0  0
  -11.8770  -23.8012  -25.6805 H   0  0  0  0  0  0  0  0  0  0  0  0
  -11.6785  -25.1829  -26.8111 H   0  0  0  0  0  0  0  0  0  0  0  0
   -9.6984  -24.1404  -26.3105 H   0  0  0  0  0  0  0  0  0  0  0  0
  1  2  2  0  0  0  0
  1  3  1  0  0  0  0
  1 17  1  0  0  0  0
  2  4  1  0  0  0  0
  3  5  2  0  0  0  0
  4  7  2  0  0  0  0
  5  7  1  0  0  0  0
  6  9  2  0  0  0  0
  6 17  1  0  0  0  0
  7  8  1  0  0  0  0
  8 19  1  0  0  0  0
  8 20  1  0  0  0  0
  8 21  1  0  0  0  0
  9 10  1  0  0  0  0
  9 14  1  0  0  0  0
 10 13  1  0  0  0  0
 10 15  1  0  0  0  0
 11 12  1  0  0  0  0
 11 13  2  0  0  0  0
 11 23  1  0  0  0  0
 12 14  2  0  0  0  0
 14 22  1  0  0  0  0
 15 16  1  0  0  0  0
 15 18  2  0  0  0  0
 16 17  2  0  0  0  0
 20 24  1  0  0  0  0
 24 25  1  0  0  0  0
 25 26  1  0  0  0  0
  2 27  1  0  0  0  0
  3 28  1  0  0  0  0
  4 29  1  0  0  0  0
  5 30  1  0  0  0  0
 10 31  1  0  0  0  0
 12 32  1  0  0  0  0
 13 33  1  0  0  0  0
 19 34  1  0  0  0  0
 19 35  1  0  0  0  0
 19 36  1  0  0  0  0
 21 37  1  0  0  0  0
 21 38  1  0  0  0  0
 21 39  1  0  0  0  0
 22 40  1  0  0  0  0
 22 41  1  0  0  0  0
 22 42  1  0  0  0  0
 24 43  1  0  0  0  0
 24 44  1  0  0  0  0
 25 45  1  0  0  0  0
 25 46  1  0  0  0  0
 26 47  1  0  0  0  0
M  END
> <Name>
5o

> <IC50[nM]>
1.5

$$$$
