5a
  -OEChem-05192314333D
 Structure written by MMmdl.
 37 39  0     0  0  0  0  0  0999 V2000
  -14.4887  -14.6549  -27.5068 C   0  0  0  0  0  0  0  0  0  0  0  0
  -15.0784  -15.5105  -26.5765 C   0  0  0  0  0  0  0  0  0  0  0  0
  -14.5574  -13.2734  -27.3136 C   0  0  0  0  0  0  0  0  0  0  0  0
  -15.7939  -14.9851  -25.4970 C   0  0  0  0  0  0  0  0  0  0  0  0
  -14.9153  -16.8955  -26.7252 N   0  0  0  0  0  0  0  0  0  0  0  0
  -15.2379  -12.7551  -26.2102 C   0  0  0  0  0  0  0  0  0  0  0  0
  -15.8736  -13.6081  -25.3035 C   0  0  0  0  0  0  0  0  0  0  0  0
  -16.4670  -15.9501  -24.5521 C   0  0  0  0  0  0  0  0  0  0  0  0
  -16.1428  -17.2389  -24.8228 N   0  0  0  0  0  0  0  0  0  0  0  0
  -17.2507  -15.6565  -23.6551 O   0  0  0  0  0  0  0  0  0  0  0  0
  -15.4124  -17.7404  -25.8797 C   0  0  0  0  0  0  0  0  0  0  0  0
  -15.2750  -19.2019  -26.0235 C   0  0  0  0  0  0  0  0  0  0  0  0
  -15.8060  -20.0944  -25.0806 C   0  0  0  0  0  0  0  0  0  0  0  0
  -15.6365  -21.4652  -25.2376 C   0  0  0  0  0  0  0  0  0  0  0  0
  -14.9291  -21.9656  -26.3345 C   0  0  0  0  0  0  0  0  0  0  0  0
  -14.4216  -21.0786  -27.2845 C   0  0  0  0  0  0  0  0  0  0  0  0
  -14.5948  -19.7141  -27.1334 C   0  0  0  0  0  0  0  0  0  0  0  0
  -14.5885  -23.4545  -26.4120 C   0  0  0  0  0  0  0  0  0  0  0  0
  -14.2373  -23.8906  -27.6995 O   0  0  0  0  0  0  0  0  0  0  0  0
  -15.7670  -24.3817  -26.0807 C   0  0  0  0  0  0  0  0  0  0  0  0
  -13.3520  -23.6762  -25.5380 C   0  0  0  0  0  0  0  0  0  0  0  0
  -13.9821  -15.0581  -28.3712 H   0  0  0  0  0  0  0  0  0  0  0  0
  -14.0839  -12.6057  -28.0181 H   0  0  0  0  0  0  0  0  0  0  0  0
  -15.2734  -11.6868  -26.0560 H   0  0  0  0  0  0  0  0  0  0  0  0
  -16.4196  -13.2046  -24.4636 H   0  0  0  0  0  0  0  0  0  0  0  0
  -16.4784  -17.9164  -24.1683 H   0  0  0  0  0  0  0  0  0  0  0  0
  -16.3494  -19.7146  -24.2281 H   0  0  0  0  0  0  0  0  0  0  0  0
  -16.0527  -22.1458  -24.5097 H   0  0  0  0  0  0  0  0  0  0  0  0
  -13.8899  -21.4597  -28.1438 H   0  0  0  0  0  0  0  0  0  0  0  0
  -14.2015  -19.0387  -27.8788 H   0  0  0  0  0  0  0  0  0  0  0  0
  -14.0390  -24.8194  -27.6766 H   0  0  0  0  0  0  0  0  0  0  0  0
  -15.4426  -25.4299  -26.1584 H   0  0  0  0  0  0  0  0  0  0  0  0
  -16.1150  -24.1806  -25.0568 H   0  0  0  0  0  0  0  0  0  0  0  0
  -16.5880  -24.1986  -26.7896 H   0  0  0  0  0  0  0  0  0  0  0  0
  -13.0697  -24.7390  -25.5641 H   0  0  0  0  0  0  0  0  0  0  0  0
  -12.5196  -23.0664  -25.9192 H   0  0  0  0  0  0  0  0  0  0  0  0
  -13.5777  -23.3822  -24.5023 H   0  0  0  0  0  0  0  0  0  0  0  0
  1  2  2  0  0  0  0
  1  3  1  0  0  0  0
  2  4  1  0  0  0  0
  2  5  1  0  0  0  0
  3  6  2  0  0  0  0
  4  7  2  0  0  0  0
  4  8  1  0  0  0  0
  5 11  2  0  0  0  0
  6  7  1  0  0  0  0
  8  9  1  0  0  0  0
  8 10  2  0  0  0  0
  9 11  1  0  0  0  0
 11 12  1  0  0  0  0
 12 13  2  0  0  0  0
 12 17  1  0  0  0  0
 13 14  1  0  0  0  0
 14 15  2  0  0  0  0
 15 16  1  0  0  0  0
 15 18  1  0  0  0  0
 16 17  2  0  0  0  0
 18 19  1  0  0  0  0
 18 20  1  0  0  0  0
 18 21  1  0  0  0  0
  1 22  1  0  0  0  0
  3 23  1  0  0  0  0
  6 24  1  0  0  0  0
  7 25  1  0  0  0  0
  9 26  1  0  0  0  0
 13 27  1  0  0  0  0
 14 28  1  0  0  0  0
 16 29  1  0  0  0  0
 17 30  1  0  0  0  0
 19 31  1  0  0  0  0
 20 32  1  0  0  0  0
 20 33  1  0  0  0  0
 20 34  1  0  0  0  0
 21 35  1  0  0  0  0
 21 36  1  0  0  0  0
 21 37  1  0  0  0  0
M  END
> <Name>
5a

> <IC50[nM]>
13

$$$$
5a
  -OEChem-05192314333D
 Structure written by MMmdl.
 37 39  0     0  0  0  0  0  0999 V2000
  -14.4887  -14.6549  -27.5068 C   0  0  0  0  0  0  0  0  0  0  0  0
  -15.0784  -15.5105  -26.5765 C   0  0  0  0  0  0  0  0  0  0  0  0
  -14.5574  -13.2734  -27.3136 C   0  0  0  0  0  0  0  0  0  0  0  0
  -15.7939  -14.9851  -25.4970 C   0  0  0  0  0  0  0  0  0  0  0  0
  -14.9153  -16.8955  -26.7252 N   0  0  0  0  0  0  0  0  0  0  0  0
  -15.2379  -12.7551  -26.2102 C   0  0  0  0  0  0  0  0  0  0  0  0
  -15.8736  -13.6081  -25.3035 C   0  0  0  0  0  0  0  0  0  0  0  0
  -16.4670  -15.9501  -24.5521 C   0  0  0  0  0  0  0  0  0  0  0  0
  -16.1428  -17.2389  -24.8228 N   0  0  0  0  0  0  0  0  0  0  0  0
  -17.2507  -15.6565  -23.6551 O   0  0  0  0  0  0  0  0  0  0  0  0
  -15.4124  -17.7404  -25.8797 C   0  0  0  0  0  0  0  0  0  0  0  0
  -15.2750  -19.2019  -26.0235 C   0  0  0  0  0  0  0  0  0  0  0  0
  -15.8060  -20.0944  -25.0806 C   0  0  0  0  0  0  0  0  0  0  0  0
  -15.6365  -21.4652  -25.2376 C   0  0  0  0  0  0  0  0  0  0  0  0
  -14.9291  -21.9656  -26.3345 C   0  0  0  0  0  0  0  0  0  0  0  0
  -14.4216  -21.0786  -27.2845 C   0  0  0  0  0  0  0  0  0  0  0  0
  -14.5948  -19.7141  -27.1334 C   0  0  0  0  0  0  0  0  0  0  0  0
  -14.5885  -23.4545  -26.4120 C   0  0  0  0  0  0  0  0  0  0  0  0
  -14.2373  -23.8906  -27.6995 O   0  0  0  0  0  0  0  0  0  0  0  0
  -15.7670  -24.3817  -26.0807 C   0  0  0  0  0  0  0  0  0  0  0  0
  -13.3520  -23.6762  -25.5380 C   0  0  0  0  0  0  0  0  0  0  0  0
  -13.9821  -15.0581  -28.3712 H   0  0  0  0  0  0  0  0  0  0  0  0
  -14.0839  -12.6057  -28.0181 H   0  0  0  0  0  0  0  0  0  0  0  0
  -14.3989  -17.2411  -27.5087 H   0  0  0  0  0  0  0  0  0  0  0  0
  -15.2734  -11.6868  -26.0560 H   0  0  0  0  0  0  0  0  0  0  0  0
  -16.4196  -13.2046  -24.4636 H   0  0  0  0  0  0  0  0  0  0  0  0
  -16.3494  -19.7146  -24.2281 H   0  0  0  0  0  0  0  0  0  0  0  0
  -16.0527  -22.1458  -24.5097 H   0  0  0  0  0  0  0  0  0  0  0  0
  -13.8899  -21.4597  -28.1438 H   0  0  0  0  0  0  0  0  0  0  0  0
  -14.2015  -19.0387  -27.8788 H   0  0  0  0  0  0  0  0  0  0  0  0
  -14.0390  -24.8194  -27.6766 H   0  0  0  0  0  0  0  0  0  0  0  0
  -15.4426  -25.4299  -26.1584 H   0  0  0  0  0  0  0  0  0  0  0  0
  -16.1150  -24.1806  -25.0568 H   0  0  0  0  0  0  0  0  0  0  0  0
  -16.5880  -24.1986  -26.7896 H   0  0  0  0  0  0  0  0  0  0  0  0
  -13.0697  -24.7390  -25.5641 H   0  0  0  0  0  0  0  0  0  0  0  0
  -12.5196  -23.0664  -25.9192 H   0  0  0  0  0  0  0  0  0  0  0  0
  -13.5777  -23.3822  -24.5023 H   0  0  0  0  0  0  0  0  0  0  0  0
  1  2  2  0  0  0  0
  1  3  1  0  0  0  0
  2  4  1  0  0  0  0
  2  5  1  0  0  0  0
  3  6  2  0  0  0  0
  4  7  2  0  0  0  0
  4  8  1  0  0  0  0
  5 11  1  0  0  0  0
  6  7  1  0  0  0  0
  8  9  1  0  0  0  0
  8 10  2  0  0  0  0
  9 11  2  0  0  0  0
 11 12  1  0  0  0  0
 12 13  2  0  0  0  0
 12 17  1  0  0  0  0
 13 14  1  0  0  0  0
 14 15  2  0  0  0  0
 15 16  1  0  0  0  0
 15 18  1  0  0  0  0
 16 17  2  0  0  0  0
 18 19  1  0  0  0  0
 18 20  1  0  0  0  0
 18 21  1  0  0  0  0
  1 22  1  0  0  0  0
  3 23  1  0  0  0  0
  5 24  1  0  0  0  0
  6 25  1  0  0  0  0
  7 26  1  0  0  0  0
 13 27  1  0  0  0  0
 14 28  1  0  0  0  0
 16 29  1  0  0  0  0
 17 30  1  0  0  0  0
 19 31  1  0  0  0  0
 20 32  1  0  0  0  0
 20 33  1  0  0  0  0
 20 34  1  0  0  0  0
 21 35  1  0  0  0  0
 21 36  1  0  0  0  0
 21 37  1  0  0  0  0
M  END
> <Name>
5a

> <IC50[nM]>
13

$$$$
5a
  -OEChem-05192314333D
 Structure written by MMmdl.
 37 39  0     0  0  0  0  0  0999 V2000
  -14.4887  -14.6549  -27.5068 C   0  0  0  0  0  0  0  0  0  0  0  0
  -15.0784  -15.5105  -26.5765 C   0  0  0  0  0  0  0  0  0  0  0  0
  -14.5574  -13.2734  -27.3136 C   0  0  0  0  0  0  0  0  0  0  0  0
  -15.7939  -14.9851  -25.4970 C   0  0  0  0  0  0  0  0  0  0  0  0
  -14.9153  -16.8955  -26.7252 N   0  0  0  0  0  0  0  0  0  0  0  0
  -15.2379  -12.7551  -26.2102 C   0  0  0  0  0  0  0  0  0  0  0  0
  -15.8736  -13.6081  -25.3035 C   0  0  0  0  0  0  0  0  0  0  0  0
  -16.4670  -15.9501  -24.5521 C   0  0  0  0  0  0  0  0  0  0  0  0
  -16.1428  -17.2389  -24.8228 N   0  0  0  0  0  0  0  0  0  0  0  0
  -17.2507  -15.6565  -23.6551 O   0  0  0  0  0  0  0  0  0  0  0  0
  -15.4124  -17.7404  -25.8797 C   0  0  0  0  0  0  0  0  0  0  0  0
  -15.2750  -19.2019  -26.0235 C   0  0  0  0  0  0  0  0  0  0  0  0
  -15.8060  -20.0944  -25.0806 C   0  0  0  0  0  0  0  0  0  0  0  0
  -15.6365  -21.4652  -25.2376 C   0  0  0  0  0  0  0  0  0  0  0  0
  -14.9291  -21.9656  -26.3345 C   0  0  0  0  0  0  0  0  0  0  0  0
  -14.4216  -21.0786  -27.2845 C   0  0  0  0  0  0  0  0  0  0  0  0
  -14.5948  -19.7141  -27.1334 C   0  0  0  0  0  0  0  0  0  0  0  0
  -14.5885  -23.4545  -26.4120 C   0  0  0  0  0  0  0  0  0  0  0  0
  -14.2373  -23.8906  -27.6995 O   0  0  0  0  0  0  0  0  0  0  0  0
  -15.7670  -24.3817  -26.0807 C   0  0  0  0  0  0  0  0  0  0  0  0
  -13.3520  -23.6762  -25.5380 C   0  0  0  0  0  0  0  0  0  0  0  0
  -13.9821  -15.0581  -28.3712 H   0  0  0  0  0  0  0  0  0  0  0  0
  -14.0839  -12.6057  -28.0181 H   0  0  0  0  0  0  0  0  0  0  0  0
  -15.2734  -11.6868  -26.0560 H   0  0  0  0  0  0  0  0  0  0  0  0
  -16.4196  -13.2046  -24.4636 H   0  0  0  0  0  0  0  0  0  0  0  0
  -17.5555  -16.4487  -23.2284 H   0  0  0  0  0  0  0  0  0  0  0  0
  -16.3494  -19.7146  -24.2281 H   0  0  0  0  0  0  0  0  0  0  0  0
  -16.0527  -22.1458  -24.5097 H   0  0  0  0  0  0  0  0  0  0  0  0
  -13.8899  -21.4597  -28.1438 H   0  0  0  0  0  0  0  0  0  0  0  0
  -14.2015  -19.0387  -27.8788 H   0  0  0  0  0  0  0  0  0  0  0  0
  -14.0390  -24.8194  -27.6766 H   0  0  0  0  0  0  0  0  0  0  0  0
  -15.4426  -25.4299  -26.1584 H   0  0  0  0  0  0  0  0  0  0  0  0
  -16.1150  -24.1806  -25.0568 H   0  0  0  0  0  0  0  0  0  0  0  0
  -16.5880  -24.1986  -26.7896 H   0  0  0  0  0  0  0  0  0  0  0  0
  -13.0697  -24.7390  -25.5641 H   0  0  0  0  0  0  0  0  0  0  0  0
  -12.5196  -23.0664  -25.9192 H   0  0  0  0  0  0  0  0  0  0  0  0
  -13.5777  -23.3822  -24.5023 H   0  0  0  0  0  0  0  0  0  0  0  0
  1  2  2  0  0  0  0
  1  3  1  0  0  0  0
  2  4  1  0  0  0  0
  2  5  1  0  0  0  0
  3  6  2  0  0  0  0
  4  7  2  0  0  0  0
  4  8  1  0  0  0  0
  5 11  2  0  0  0  0
  6  7  1  0  0  0  0
  8  9  2  0  0  0  0
  8 10  1  0  0  0  0
  9 11  1  0  0  0  0
 11 12  1  0  0  0  0
 12 13  2  0  0  0  0
 12 17  1  0  0  0  0
 13 14  1  0  0  0  0
 14 15  2  0  0  0  0
 15 16  1  0  0  0  0
 15 18  1  0  0  0  0
 16 17  2  0  0  0  0
 18 19  1  0  0  0  0
 18 20  1  0  0  0  0
 18 21  1  0  0  0  0
  1 22  1  0  0  0  0
  3 23  1  0  0  0  0
  6 24  1  0  0  0  0
  7 25  1  0  0  0  0
 10 26  1  0  0  0  0
 13 27  1  0  0  0  0
 14 28  1  0  0  0  0
 16 29  1  0  0  0  0
 17 30  1  0  0  0  0
 19 31  1  0  0  0  0
 20 32  1  0  0  0  0
 20 33  1  0  0  0  0
 20 34  1  0  0  0  0
 21 35  1  0  0  0  0
 21 36  1  0  0  0  0
 21 37  1  0  0  0  0
M  END
> <Name>
5a

> <IC50[nM]>
13

$$$$
5a
  -OEChem-05192314333D
 Structure written by MMmdl.
 37 39  0     1  0  0  0  0  0999 V2000
  -14.4887  -14.6549  -27.5068 C   0  0  0  0  0  0  0  0  0  0  0  0
  -15.0784  -15.5105  -26.5765 C   0  0  0  0  0  0  0  0  0  0  0  0
  -14.5574  -13.2734  -27.3136 C   0  0  0  0  0  0  0  0  0  0  0  0
  -15.7939  -14.9851  -25.4970 C   0  0  3  0  0  0  0  0  0  0  0  0
  -14.9153  -16.8955  -26.7252 N   0  0  0  0  0  0  0  0  0  0  0  0
  -15.2379  -12.7551  -26.2102 C   0  0  0  0  0  0  0  0  0  0  0  0
  -15.8736  -13.6081  -25.3035 C   0  0  0  0  0  0  0  0  0  0  0  0
  -16.4670  -15.9501  -24.5521 C   0  0  0  0  0  0  0  0  0  0  0  0
  -16.1428  -17.2389  -24.8228 N   0  0  0  0  0  0  0  0  0  0  0  0
  -17.2507  -15.6565  -23.6551 O   0  0  0  0  0  0  0  0  0  0  0  0
  -15.4124  -17.7404  -25.8797 C   0  0  0  0  0  0  0  0  0  0  0  0
  -15.2750  -19.2019  -26.0235 C   0  0  0  0  0  0  0  0  0  0  0  0
  -15.8060  -20.0944  -25.0806 C   0  0  0  0  0  0  0  0  0  0  0  0
  -15.6365  -21.4652  -25.2376 C   0  0  0  0  0  0  0  0  0  0  0  0
  -14.9291  -21.9656  -26.3345 C   0  0  0  0  0  0  0  0  0  0  0  0
  -14.4216  -21.0786  -27.2845 C   0  0  0  0  0  0  0  0  0  0  0  0
  -14.5948  -19.7141  -27.1334 C   0  0  0  0  0  0  0  0  0  0  0  0
  -14.5885  -23.4545  -26.4120 C   0  0  0  0  0  0  0  0  0  0  0  0
  -14.2373  -23.8906  -27.6995 O   0  0  0  0  0  0  0  0  0  0  0  0
  -15.7670  -24.3817  -26.0807 C   0  0  0  0  0  0  0  0  0  0  0  0
  -13.3520  -23.6762  -25.5380 C   0  0  0  0  0  0  0  0  0  0  0  0
  -13.9821  -15.0581  -28.3712 H   0  0  0  0  0  0  0  0  0  0  0  0
  -14.0839  -12.6057  -28.0181 H   0  0  0  0  0  0  0  0  0  0  0  0
  -16.7039  -14.9525  -26.1141 H   0  0  0  0  0  0  0  0  0  0  0  0
  -15.2734  -11.6868  -26.0560 H   0  0  0  0  0  0  0  0  0  0  0  0
  -16.4196  -13.2046  -24.4636 H   0  0  0  0  0  0  0  0  0  0  0  0
  -16.3494  -19.7146  -24.2281 H   0  0  0  0  0  0  0  0  0  0  0  0
  -16.0527  -22.1458  -24.5097 H   0  0  0  0  0  0  0  0  0  0  0  0
  -13.8899  -21.4597  -28.1438 H   0  0  0  0  0  0  0  0  0  0  0  0
  -14.2015  -19.0387  -27.8788 H   0  0  0  0  0  0  0  0  0  0  0  0
  -14.0390  -24.8194  -27.6766 H   0  0  0  0  0  0  0  0  0  0  0  0
  -15.4426  -25.4299  -26.1584 H   0  0  0  0  0  0  0  0  0  0  0  0
  -16.1150  -24.1806  -25.0568 H   0  0  0  0  0  0  0  0  0  0  0  0
  -16.5880  -24.1986  -26.7896 H   0  0  0  0  0  0  0  0  0  0  0  0
  -13.0697  -24.7390  -25.5641 H   0  0  0  0  0  0  0  0  0  0  0  0
  -12.5196  -23.0664  -25.9192 H   0  0  0  0  0  0  0  0  0  0  0  0
  -13.5777  -23.3822  -24.5023 H   0  0  0  0  0  0  0  0  0  0  0  0
  1  2  1  0  0  0  0
  1  3  2  0  0  0  0
  2  4  1  0  0  0  0
  2  5  2  0  0  0  0
  3  6  1  0  0  0  0
  4  7  1  0  0  0  0
  4  8  1  0  0  0  0
  5 11  1  0  0  0  0
  6  7  2  0  0  0  0
  8  9  1  0  0  0  0
  8 10  2  0  0  0  0
  9 11  2  0  0  0  0
 11 12  1  0  0  0  0
 12 13  2  0  0  0  0
 12 17  1  0  0  0  0
 13 14  1  0  0  0  0
 14 15  2  0  0  0  0
 15 16  1  0  0  0  0
 15 18  1  0  0  0  0
 16 17  2  0  0  0  0
 18 19  1  0  0  0  0
 18 20  1  0  0  0  0
 18 21  1  0  0  0  0
  1 22  1  0  0  0  0
  3 23  1  0  0  0  0
  4 24  1  0  0  0  0
  6 25  1  0  0  0  0
  7 26  1  0  0  0  0
 13 27  1  0  0  0  0
 14 28  1  0  0  0  0
 16 29  1  0  0  0  0
 17 30  1  0  0  0  0
 19 31  1  0  0  0  0
 20 32  1  0  0  0  0
 20 33  1  0  0  0  0
 20 34  1  0  0  0  0
 21 35  1  0  0  0  0
 21 36  1  0  0  0  0
 21 37  1  0  0  0  0
M  END
> <Name>
5a

> <IC50[nM]>
13

$$$$
5a
  -OEChem-05192314333D
 Structure written by MMmdl.
 37 39  0     0  0  0  0  0  0999 V2000
  -14.4887  -14.6549  -27.5068 C   0  0  0  0  0  0  0  0  0  0  0  0
  -15.0784  -15.5105  -26.5765 C   0  0  0  0  0  0  0  0  0  0  0  0
  -14.5574  -13.2734  -27.3136 C   0  0  0  0  0  0  0  0  0  0  0  0
  -15.7939  -14.9851  -25.4970 C   0  0  0  0  0  0  0  0  0  0  0  0
  -14.9153  -16.8955  -26.7252 N   0  0  0  0  0  0  0  0  0  0  0  0
  -15.2379  -12.7551  -26.2102 C   0  0  0  0  0  0  0  0  0  0  0  0
  -15.8736  -13.6081  -25.3035 C   0  0  0  0  0  0  0  0  0  0  0  0
  -16.4670  -15.9501  -24.5521 C   0  0  0  0  0  0  0  0  0  0  0  0
  -16.1428  -17.2389  -24.8228 N   0  0  0  0  0  0  0  0  0  0  0  0
  -17.2507  -15.6565  -23.6551 O   0  0  0  0  0  0  0  0  0  0  0  0
  -15.4124  -17.7404  -25.8797 C   0  0  0  0  0  0  0  0  0  0  0  0
  -15.2750  -19.2019  -26.0235 C   0  0  0  0  0  0  0  0  0  0  0  0
  -15.8060  -20.0944  -25.0806 C   0  0  0  0  0  0  0  0  0  0  0  0
  -15.6365  -21.4652  -25.2376 C   0  0  0  0  0  0  0  0  0  0  0  0
  -14.9291  -21.9656  -26.3345 C   0  0  0  0  0  0  0  0  0  0  0  0
  -14.4216  -21.0786  -27.2845 C   0  0  0  0  0  0  0  0  0  0  0  0
  -14.5948  -19.7141  -27.1334 C   0  0  0  0  0  0  0  0  0  0  0  0
  -14.5885  -23.4545  -26.4120 C   0  0  0  0  0  0  0  0  0  0  0  0
  -14.2373  -23.8906  -27.6995 O   0  0  0  0  0  0  0  0  0  0  0  0
  -15.7670  -24.3817  -26.0807 C   0  0  0  0  0  0  0  0  0  0  0  0
  -13.3520  -23.6762  -25.5380 C   0  0  0  0  0  0  0  0  0  0  0  0
  -13.9821  -15.0581  -28.3712 H   0  0  0  0  0  0  0  0  0  0  0  0
  -14.0839  -12.6057  -28.0181 H   0  0  0  0  0  0  0  0  0  0  0  0
  -14.5049  -12.1720  -25.6334 H   0  0  0  0  0  0  0  0  0  0  0  0
  -16.0127  -12.0818  -26.6056 H   0  0  0  0  0  0  0  0  0  0  0  0
  -16.4196  -13.2046  -24.4636 H   0  0  0  0  0  0  0  0  0  0  0  0
  -16.3494  -19.7146  -24.2281 H   0  0  0  0  0  0  0  0  0  0  0  0
  -16.0527  -22.1458  -24.5097 H   0  0  0  0  0  0  0  0  0  0  0  0
  -13.8899  -21.4597  -28.1438 H   0  0  0  0  0  0  0  0  0  0  0  0
  -14.2015  -19.0387  -27.8788 H   0  0  0  0  0  0  0  0  0  0  0  0
  -14.0390  -24.8194  -27.6766 H   0  0  0  0  0  0  0  0  0  0  0  0
  -15.4426  -25.4299  -26.1584 H   0  0  0  0  0  0  0  0  0  0  0  0
  -16.1150  -24.1806  -25.0568 H   0  0  0  0  0  0  0  0  0  0  0  0
  -16.5880  -24.1986  -26.7896 H   0  0  0  0  0  0  0  0  0  0  0  0
  -13.0697  -24.7390  -25.5641 H   0  0  0  0  0  0  0  0  0  0  0  0
  -12.5196  -23.0664  -25.9192 H   0  0  0  0  0  0  0  0  0  0  0  0
  -13.5777  -23.3822  -24.5023 H   0  0  0  0  0  0  0  0  0  0  0  0
  1  2  1  0  0  0  0
  1  3  2  0  0  0  0
  2  4  1  0  0  0  0
  2  5  2  0  0  0  0
  3  6  1  0  0  0  0
  4  7  2  0  0  0  0
  4  8  1  0  0  0  0
  5 11  1  0  0  0  0
  6  7  1  0  0  0  0
  8  9  1  0  0  0  0
  8 10  2  0  0  0  0
  9 11  2  0  0  0  0
 11 12  1  0  0  0  0
 12 13  2  0  0  0  0
 12 17  1  0  0  0  0
 13 14  1  0  0  0  0
 14 15  2  0  0  0  0
 15 16  1  0  0  0  0
 15 18  1  0  0  0  0
 16 17  2  0  0  0  0
 18 19  1  0  0  0  0
 18 20  1  0  0  0  0
 18 21  1  0  0  0  0
  1 22  1  0  0  0  0
  3 23  1  0  0  0  0
  6 24  1  0  0  0  0
  6 25  1  0  0  0  0
  7 26  1  0  0  0  0
 13 27  1  0  0  0  0
 14 28  1  0  0  0  0
 16 29  1  0  0  0  0
 17 30  1  0  0  0  0
 19 31  1  0  0  0  0
 20 32  1  0  0  0  0
 20 33  1  0  0  0  0
 20 34  1  0  0  0  0
 21 35  1  0  0  0  0
 21 36  1  0  0  0  0
 21 37  1  0  0  0  0
M  END
> <Name>
5a

> <IC50[nM]>
13

$$$$
5a
  -OEChem-05192314333D
 Structure written by MMmdl.
 37 39  0     0  0  0  0  0  0999 V2000
  -14.4887  -14.6549  -27.5068 C   0  0  0  0  0  0  0  0  0  0  0  0
  -15.0784  -15.5105  -26.5765 C   0  0  0  0  0  0  0  0  0  0  0  0
  -14.5574  -13.2734  -27.3136 C   0  0  0  0  0  0  0  0  0  0  0  0
  -15.7939  -14.9851  -25.4970 C   0  0  0  0  0  0  0  0  0  0  0  0
  -14.9153  -16.8955  -26.7252 N   0  0  0  0  0  0  0  0  0  0  0  0
  -15.2379  -12.7551  -26.2102 C   0  0  0  0  0  0  0  0  0  0  0  0
  -15.8736  -13.6081  -25.3035 C   0  0  0  0  0  0  0  0  0  0  0  0
  -16.4670  -15.9501  -24.5521 C   0  0  0  0  0  0  0  0  0  0  0  0
  -16.1428  -17.2389  -24.8228 N   0  0  0  0  0  0  0  0  0  0  0  0
  -17.2507  -15.6565  -23.6551 O   0  0  0  0  0  0  0  0  0  0  0  0
  -15.4124  -17.7404  -25.8797 C   0  0  0  0  0  0  0  0  0  0  0  0
  -15.2750  -19.2019  -26.0235 C   0  0  0  0  0  0  0  0  0  0  0  0
  -15.8060  -20.0944  -25.0806 C   0  0  0  0  0  0  0  0  0  0  0  0
  -15.6365  -21.4652  -25.2376 C   0  0  0  0  0  0  0  0  0  0  0  0
  -14.9291  -21.9656  -26.3345 C   0  0  0  0  0  0  0  0  0  0  0  0
  -14.4216  -21.0786  -27.2845 C   0  0  0  0  0  0  0  0  0  0  0  0
  -14.5948  -19.7141  -27.1334 C   0  0  0  0  0  0  0  0  0  0  0  0
  -14.5885  -23.4545  -26.4120 C   0  0  0  0  0  0  0  0  0  0  0  0
  -14.2373  -23.8906  -27.6995 O   0  0  0  0  0  0  0  0  0  0  0  0
  -15.7670  -24.3817  -26.0807 C   0  0  0  0  0  0  0  0  0  0  0  0
  -13.3520  -23.6762  -25.5380 C   0  0  0  0  0  0  0  0  0  0  0  0
  -13.4217  -14.9185  -27.5520 H   0  0  0  0  0  0  0  0  0  0  0  0
  -14.9599  -14.8655  -28.4782 H   0  0  0  0  0  0  0  0  0  0  0  0
  -14.0839  -12.6057  -28.0181 H   0  0  0  0  0  0  0  0  0  0  0  0
  -15.2734  -11.6868  -26.0560 H   0  0  0  0  0  0  0  0  0  0  0  0
  -16.4196  -13.2046  -24.4636 H   0  0  0  0  0  0  0  0  0  0  0  0
  -16.3494  -19.7146  -24.2281 H   0  0  0  0  0  0  0  0  0  0  0  0
  -16.0527  -22.1458  -24.5097 H   0  0  0  0  0  0  0  0  0  0  0  0
  -13.8899  -21.4597  -28.1438 H   0  0  0  0  0  0  0  0  0  0  0  0
  -14.2015  -19.0387  -27.8788 H   0  0  0  0  0  0  0  0  0  0  0  0
  -14.0390  -24.8194  -27.6766 H   0  0  0  0  0  0  0  0  0  0  0  0
  -15.4426  -25.4299  -26.1584 H   0  0  0  0  0  0  0  0  0  0  0  0
  -16.1150  -24.1806  -25.0568 H   0  0  0  0  0  0  0  0  0  0  0  0
  -16.5880  -24.1986  -26.7896 H   0  0  0  0  0  0  0  0  0  0  0  0
  -13.0697  -24.7390  -25.5641 H   0  0  0  0  0  0  0  0  0  0  0  0
  -12.5196  -23.0664  -25.9192 H   0  0  0  0  0  0  0  0  0  0  0  0
  -13.5777  -23.3822  -24.5023 H   0  0  0  0  0  0  0  0  0  0  0  0
  1  2  1  0  0  0  0
  1  3  1  0  0  0  0
  2  4  1  0  0  0  0
  2  5  2  0  0  0  0
  3  6  2  0  0  0  0
  4  7  2  0  0  0  0
  4  8  1  0  0  0  0
  5 11  1  0  0  0  0
  6  7  1  0  0  0  0
  8  9  1  0  0  0  0
  8 10  2  0  0  0  0
  9 11  2  0  0  0  0
 11 12  1  0  0  0  0
 12 13  2  0  0  0  0
 12 17  1  0  0  0  0
 13 14  1  0  0  0  0
 14 15  2  0  0  0  0
 15 16  1  0  0  0  0
 15 18  1  0  0  0  0
 16 17  2  0  0  0  0
 18 19  1  0  0  0  0
 18 20  1  0  0  0  0
 18 21  1  0  0  0  0
  1 22  1  0  0  0  0
  1 23  1  0  0  0  0
  3 24  1  0  0  0  0
  6 25  1  0  0  0  0
  7 26  1  0  0  0  0
 13 27  1  0  0  0  0
 14 28  1  0  0  0  0
 16 29  1  0  0  0  0
 17 30  1  0  0  0  0
 19 31  1  0  0  0  0
 20 32  1  0  0  0  0
 20 33  1  0  0  0  0
 20 34  1  0  0  0  0
 21 35  1  0  0  0  0
 21 36  1  0  0  0  0
 21 37  1  0  0  0  0
M  END
> <Name>
5a

> <IC50[nM]>
13

$$$$
