5k
  -OEChem-05192314333D
 Structure written by MMmdl.
 37 39  0     0  0  0  0  0  0999 V2000
  -14.4532  -14.7787  -27.4312 C   0  0  0  0  0  0  0  0  0  0  0  0
  -15.1418  -15.5967  -26.5280 C   0  0  0  0  0  0  0  0  0  0  0  0
  -14.5909  -13.3992  -27.3291 C   0  0  0  0  0  0  0  0  0  0  0  0
  -15.9826  -15.0410  -25.5537 C   0  0  0  0  0  0  0  0  0  0  0  0
  -14.9735  -16.9774  -26.6084 N   0  0  0  0  0  0  0  0  0  0  0  0
  -15.4131  -12.8584  -26.3442 C   0  0  0  0  0  0  0  0  0  0  0  0
  -16.1201  -13.6612  -25.4553 C   0  0  0  0  0  0  0  0  0  0  0  0
  -16.7396  -15.9720  -24.6306 C   0  0  0  0  0  0  0  0  0  0  0  0
  -16.4336  -17.2753  -24.8698 N   0  0  0  0  0  0  0  0  0  0  0  0
  -17.5633  -15.6368  -23.7781 O   0  0  0  0  0  0  0  0  0  0  0  0
  -15.5834  -17.7992  -25.8267 C   0  0  0  0  0  0  0  0  0  0  0  0
  -15.4138  -19.2509  -25.9685 C   0  0  0  0  0  0  0  0  0  0  0  0
  -15.7847  -20.1437  -24.9565 C   0  0  0  0  0  0  0  0  0  0  0  0
  -15.5471  -21.5021  -25.1160 C   0  0  0  0  0  0  0  0  0  0  0  0
  -14.9582  -21.9835  -26.2915 C   0  0  0  0  0  0  0  0  0  0  0  0
  -14.6239  -21.0987  -27.3099 C   0  0  0  0  0  0  0  0  0  0  0  0
  -14.8497  -19.7472  -27.1519 C   0  0  0  0  0  0  0  0  0  0  0  0
  -14.5900  -23.4561  -26.4138 C   0  0  0  0  0  0  0  0  0  0  0  0
  -14.2444  -23.8763  -27.7078 O   0  0  0  0  0  0  0  0  0  0  0  0
  -13.6455  -15.3006  -28.3854 F   0  0  0  0  0  0  0  0  0  0  0  0
  -15.5384  -11.5358  -26.2611 F   0  0  0  0  0  0  0  0  0  0  0  0
  -15.7758  -24.3565  -26.1019 C   0  0  0  0  0  0  0  0  0  0  0  0
  -13.3488  -23.6919  -25.5595 C   0  0  0  0  0  0  0  0  0  0  0  0
  -14.0623  -12.7496  -28.0110 H   0  0  0  0  0  0  0  0  0  0  0  0
  -16.7616  -13.2224  -24.7054 H   0  0  0  0  0  0  0  0  0  0  0  0
  -16.8824  -17.9428  -24.2756 H   0  0  0  0  0  0  0  0  0  0  0  0
  -16.2538  -19.7774  -24.0553 H   0  0  0  0  0  0  0  0  0  0  0  0
  -15.8178  -22.1910  -24.3295 H   0  0  0  0  0  0  0  0  0  0  0  0
  -14.1871  -21.4696  -28.2254 H   0  0  0  0  0  0  0  0  0  0  0  0
  -14.5894  -19.0648  -27.9475 H   0  0  0  0  0  0  0  0  0  0  0  0
  -14.0303  -24.8018  -27.6941 H   0  0  0  0  0  0  0  0  0  0  0  0
  -15.4732  -25.4095  -26.2001 H   0  0  0  0  0  0  0  0  0  0  0  0
  -16.1187  -24.1681  -25.0738 H   0  0  0  0  0  0  0  0  0  0  0  0
  -16.5934  -24.1429  -26.8061 H   0  0  0  0  0  0  0  0  0  0  0  0
  -13.0537  -24.7496  -25.6247 H   0  0  0  0  0  0  0  0  0  0  0  0
  -12.5267  -23.0588  -25.9248 H   0  0  0  0  0  0  0  0  0  0  0  0
  -13.5705  -23.4371  -24.5126 H   0  0  0  0  0  0  0  0  0  0  0  0
  1  2  2  0  0  0  0
  1  3  1  0  0  0  0
  1 20  1  0  0  0  0
  2  4  1  0  0  0  0
  2  5  1  0  0  0  0
  3  6  2  0  0  0  0
  4  7  2  0  0  0  0
  4  8  1  0  0  0  0
  5 11  2  0  0  0  0
  6  7  1  0  0  0  0
  6 21  1  0  0  0  0
  8  9  1  0  0  0  0
  8 10  2  0  0  0  0
  9 11  1  0  0  0  0
 11 12  1  0  0  0  0
 12 13  2  0  0  0  0
 12 17  1  0  0  0  0
 13 14  1  0  0  0  0
 14 15  2  0  0  0  0
 15 16  1  0  0  0  0
 15 18  1  0  0  0  0
 16 17  2  0  0  0  0
 18 19  1  0  0  0  0
 18 22  1  0  0  0  0
 18 23  1  0  0  0  0
  3 24  1  0  0  0  0
  7 25  1  0  0  0  0
  9 26  1  0  0  0  0
 13 27  1  0  0  0  0
 14 28  1  0  0  0  0
 16 29  1  0  0  0  0
 17 30  1  0  0  0  0
 19 31  1  0  0  0  0
 22 32  1  0  0  0  0
 22 33  1  0  0  0  0
 22 34  1  0  0  0  0
 23 35  1  0  0  0  0
 23 36  1  0  0  0  0
 23 37  1  0  0  0  0
M  END
> <Name>
5k

> <IC50[nM]>
9.2

$$$$
5k
  -OEChem-05192314333D
 Structure written by MMmdl.
 37 39  0     0  0  0  0  0  0999 V2000
  -14.4532  -14.7787  -27.4312 C   0  0  0  0  0  0  0  0  0  0  0  0
  -15.1418  -15.5967  -26.5280 C   0  0  0  0  0  0  0  0  0  0  0  0
  -14.5909  -13.3992  -27.3291 C   0  0  0  0  0  0  0  0  0  0  0  0
  -15.9826  -15.0410  -25.5537 C   0  0  0  0  0  0  0  0  0  0  0  0
  -14.9735  -16.9774  -26.6084 N   0  0  0  0  0  0  0  0  0  0  0  0
  -15.4131  -12.8584  -26.3442 C   0  0  0  0  0  0  0  0  0  0  0  0
  -16.1201  -13.6612  -25.4553 C   0  0  0  0  0  0  0  0  0  0  0  0
  -16.7396  -15.9720  -24.6306 C   0  0  0  0  0  0  0  0  0  0  0  0
  -16.4336  -17.2753  -24.8698 N   0  0  0  0  0  0  0  0  0  0  0  0
  -17.5633  -15.6368  -23.7781 O   0  0  0  0  0  0  0  0  0  0  0  0
  -15.5834  -17.7992  -25.8267 C   0  0  0  0  0  0  0  0  0  0  0  0
  -15.4138  -19.2509  -25.9685 C   0  0  0  0  0  0  0  0  0  0  0  0
  -15.7847  -20.1437  -24.9565 C   0  0  0  0  0  0  0  0  0  0  0  0
  -15.5471  -21.5021  -25.1160 C   0  0  0  0  0  0  0  0  0  0  0  0
  -14.9582  -21.9835  -26.2915 C   0  0  0  0  0  0  0  0  0  0  0  0
  -14.6239  -21.0987  -27.3099 C   0  0  0  0  0  0  0  0  0  0  0  0
  -14.8497  -19.7472  -27.1519 C   0  0  0  0  0  0  0  0  0  0  0  0
  -14.5900  -23.4561  -26.4138 C   0  0  0  0  0  0  0  0  0  0  0  0
  -14.2444  -23.8763  -27.7078 O   0  0  0  0  0  0  0  0  0  0  0  0
  -13.6455  -15.3006  -28.3854 F   0  0  0  0  0  0  0  0  0  0  0  0
  -15.5384  -11.5358  -26.2611 F   0  0  0  0  0  0  0  0  0  0  0  0
  -15.7758  -24.3565  -26.1019 C   0  0  0  0  0  0  0  0  0  0  0  0
  -13.3488  -23.6919  -25.5595 C   0  0  0  0  0  0  0  0  0  0  0  0
  -14.0623  -12.7496  -28.0110 H   0  0  0  0  0  0  0  0  0  0  0  0
  -14.3537  -17.3453  -27.3015 H   0  0  0  0  0  0  0  0  0  0  0  0
  -16.7616  -13.2224  -24.7054 H   0  0  0  0  0  0  0  0  0  0  0  0
  -16.2538  -19.7774  -24.0553 H   0  0  0  0  0  0  0  0  0  0  0  0
  -15.8178  -22.1910  -24.3295 H   0  0  0  0  0  0  0  0  0  0  0  0
  -14.1871  -21.4696  -28.2254 H   0  0  0  0  0  0  0  0  0  0  0  0
  -14.5894  -19.0648  -27.9475 H   0  0  0  0  0  0  0  0  0  0  0  0
  -14.0303  -24.8018  -27.6941 H   0  0  0  0  0  0  0  0  0  0  0  0
  -15.4732  -25.4095  -26.2001 H   0  0  0  0  0  0  0  0  0  0  0  0
  -16.1187  -24.1681  -25.0738 H   0  0  0  0  0  0  0  0  0  0  0  0
  -16.5934  -24.1429  -26.8061 H   0  0  0  0  0  0  0  0  0  0  0  0
  -13.0537  -24.7496  -25.6247 H   0  0  0  0  0  0  0  0  0  0  0  0
  -12.5267  -23.0588  -25.9248 H   0  0  0  0  0  0  0  0  0  0  0  0
  -13.5705  -23.4371  -24.5126 H   0  0  0  0  0  0  0  0  0  0  0  0
  1  2  2  0  0  0  0
  1  3  1  0  0  0  0
  1 20  1  0  0  0  0
  2  4  1  0  0  0  0
  2  5  1  0  0  0  0
  3  6  2  0  0  0  0
  4  7  2  0  0  0  0
  4  8  1  0  0  0  0
  5 11  1  0  0  0  0
  6  7  1  0  0  0  0
  6 21  1  0  0  0  0
  8  9  1  0  0  0  0
  8 10  2  0  0  0  0
  9 11  2  0  0  0  0
 11 12  1  0  0  0  0
 12 13  2  0  0  0  0
 12 17  1  0  0  0  0
 13 14  1  0  0  0  0
 14 15  2  0  0  0  0
 15 16  1  0  0  0  0
 15 18  1  0  0  0  0
 16 17  2  0  0  0  0
 18 19  1  0  0  0  0
 18 22  1  0  0  0  0
 18 23  1  0  0  0  0
  3 24  1  0  0  0  0
  5 25  1  0  0  0  0
  7 26  1  0  0  0  0
 13 27  1  0  0  0  0
 14 28  1  0  0  0  0
 16 29  1  0  0  0  0
 17 30  1  0  0  0  0
 19 31  1  0  0  0  0
 22 32  1  0  0  0  0
 22 33  1  0  0  0  0
 22 34  1  0  0  0  0
 23 35  1  0  0  0  0
 23 36  1  0  0  0  0
 23 37  1  0  0  0  0
M  END
> <Name>
5k

> <IC50[nM]>
9.2

$$$$
5k
  -OEChem-05192314333D
 Structure written by MMmdl.
 37 39  0     0  0  0  0  0  0999 V2000
  -14.4532  -14.7787  -27.4312 C   0  0  0  0  0  0  0  0  0  0  0  0
  -15.1418  -15.5967  -26.5280 C   0  0  0  0  0  0  0  0  0  0  0  0
  -14.5909  -13.3992  -27.3291 C   0  0  0  0  0  0  0  0  0  0  0  0
  -15.9826  -15.0410  -25.5537 C   0  0  0  0  0  0  0  0  0  0  0  0
  -14.9735  -16.9774  -26.6084 N   0  0  0  0  0  0  0  0  0  0  0  0
  -15.4131  -12.8584  -26.3442 C   0  0  0  0  0  0  0  0  0  0  0  0
  -16.1201  -13.6612  -25.4553 C   0  0  0  0  0  0  0  0  0  0  0  0
  -16.7396  -15.9720  -24.6306 C   0  0  0  0  0  0  0  0  0  0  0  0
  -16.4336  -17.2753  -24.8698 N   0  0  0  0  0  0  0  0  0  0  0  0
  -17.5633  -15.6368  -23.7781 O   0  0  0  0  0  0  0  0  0  0  0  0
  -15.5834  -17.7992  -25.8267 C   0  0  0  0  0  0  0  0  0  0  0  0
  -15.4138  -19.2509  -25.9685 C   0  0  0  0  0  0  0  0  0  0  0  0
  -15.7847  -20.1437  -24.9565 C   0  0  0  0  0  0  0  0  0  0  0  0
  -15.5471  -21.5021  -25.1160 C   0  0  0  0  0  0  0  0  0  0  0  0
  -14.9582  -21.9835  -26.2915 C   0  0  0  0  0  0  0  0  0  0  0  0
  -14.6239  -21.0987  -27.3099 C   0  0  0  0  0  0  0  0  0  0  0  0
  -14.8497  -19.7472  -27.1519 C   0  0  0  0  0  0  0  0  0  0  0  0
  -14.5900  -23.4561  -26.4138 C   0  0  0  0  0  0  0  0  0  0  0  0
  -14.2444  -23.8763  -27.7078 O   0  0  0  0  0  0  0  0  0  0  0  0
  -13.6455  -15.3006  -28.3854 F   0  0  0  0  0  0  0  0  0  0  0  0
  -15.5384  -11.5358  -26.2611 F   0  0  0  0  0  0  0  0  0  0  0  0
  -15.7758  -24.3565  -26.1019 C   0  0  0  0  0  0  0  0  0  0  0  0
  -13.3488  -23.6919  -25.5595 C   0  0  0  0  0  0  0  0  0  0  0  0
  -14.0623  -12.7496  -28.0110 H   0  0  0  0  0  0  0  0  0  0  0  0
  -16.7616  -13.2224  -24.7054 H   0  0  0  0  0  0  0  0  0  0  0  0
  -17.9143  -16.4113  -23.3545 H   0  0  0  0  0  0  0  0  0  0  0  0
  -16.2538  -19.7774  -24.0553 H   0  0  0  0  0  0  0  0  0  0  0  0
  -15.8178  -22.1910  -24.3295 H   0  0  0  0  0  0  0  0  0  0  0  0
  -14.1871  -21.4696  -28.2254 H   0  0  0  0  0  0  0  0  0  0  0  0
  -14.5894  -19.0648  -27.9475 H   0  0  0  0  0  0  0  0  0  0  0  0
  -14.0303  -24.8018  -27.6941 H   0  0  0  0  0  0  0  0  0  0  0  0
  -15.4732  -25.4095  -26.2001 H   0  0  0  0  0  0  0  0  0  0  0  0
  -16.1187  -24.1681  -25.0738 H   0  0  0  0  0  0  0  0  0  0  0  0
  -16.5934  -24.1429  -26.8061 H   0  0  0  0  0  0  0  0  0  0  0  0
  -13.0537  -24.7496  -25.6247 H   0  0  0  0  0  0  0  0  0  0  0  0
  -12.5267  -23.0588  -25.9248 H   0  0  0  0  0  0  0  0  0  0  0  0
  -13.5705  -23.4371  -24.5126 H   0  0  0  0  0  0  0  0  0  0  0  0
  1  2  2  0  0  0  0
  1  3  1  0  0  0  0
  1 20  1  0  0  0  0
  2  4  1  0  0  0  0
  2  5  1  0  0  0  0
  3  6  2  0  0  0  0
  4  7  2  0  0  0  0
  4  8  1  0  0  0  0
  5 11  2  0  0  0  0
  6  7  1  0  0  0  0
  6 21  1  0  0  0  0
  8  9  2  0  0  0  0
  8 10  1  0  0  0  0
  9 11  1  0  0  0  0
 11 12  1  0  0  0  0
 12 13  2  0  0  0  0
 12 17  1  0  0  0  0
 13 14  1  0  0  0  0
 14 15  2  0  0  0  0
 15 16  1  0  0  0  0
 15 18  1  0  0  0  0
 16 17  2  0  0  0  0
 18 19  1  0  0  0  0
 18 22  1  0  0  0  0
 18 23  1  0  0  0  0
  3 24  1  0  0  0  0
  7 25  1  0  0  0  0
 10 26  1  0  0  0  0
 13 27  1  0  0  0  0
 14 28  1  0  0  0  0
 16 29  1  0  0  0  0
 17 30  1  0  0  0  0
 19 31  1  0  0  0  0
 22 32  1  0  0  0  0
 22 33  1  0  0  0  0
 22 34  1  0  0  0  0
 23 35  1  0  0  0  0
 23 36  1  0  0  0  0
 23 37  1  0  0  0  0
M  END
> <Name>
5k

> <IC50[nM]>
9.2

$$$$
5k
  -OEChem-05192314333D
 Structure written by MMmdl.
 37 39  0     1  0  0  0  0  0999 V2000
  -14.4532  -14.7787  -27.4312 C   0  0  0  0  0  0  0  0  0  0  0  0
  -15.1418  -15.5967  -26.5280 C   0  0  0  0  0  0  0  0  0  0  0  0
  -14.5909  -13.3992  -27.3291 C   0  0  0  0  0  0  0  0  0  0  0  0
  -15.9826  -15.0410  -25.5537 C   0  0  0  0  0  0  0  0  0  0  0  0
  -14.9735  -16.9774  -26.6084 N   0  0  0  0  0  0  0  0  0  0  0  0
  -15.4131  -12.8584  -26.3442 C   0  0  3  0  0  0  0  0  0  0  0  0
  -16.1201  -13.6612  -25.4553 C   0  0  0  0  0  0  0  0  0  0  0  0
  -16.7396  -15.9720  -24.6306 C   0  0  0  0  0  0  0  0  0  0  0  0
  -16.4336  -17.2753  -24.8698 N   0  0  0  0  0  0  0  0  0  0  0  0
  -17.5633  -15.6368  -23.7781 O   0  0  0  0  0  0  0  0  0  0  0  0
  -15.5834  -17.7992  -25.8267 C   0  0  0  0  0  0  0  0  0  0  0  0
  -15.4138  -19.2509  -25.9685 C   0  0  0  0  0  0  0  0  0  0  0  0
  -15.7847  -20.1437  -24.9565 C   0  0  0  0  0  0  0  0  0  0  0  0
  -15.5471  -21.5021  -25.1160 C   0  0  0  0  0  0  0  0  0  0  0  0
  -14.9582  -21.9835  -26.2915 C   0  0  0  0  0  0  0  0  0  0  0  0
  -14.6239  -21.0987  -27.3099 C   0  0  0  0  0  0  0  0  0  0  0  0
  -14.8497  -19.7472  -27.1519 C   0  0  0  0  0  0  0  0  0  0  0  0
  -14.5900  -23.4561  -26.4138 C   0  0  0  0  0  0  0  0  0  0  0  0
  -14.2444  -23.8763  -27.7078 O   0  0  0  0  0  0  0  0  0  0  0  0
  -13.6455  -15.3006  -28.3854 F   0  0  0  0  0  0  0  0  0  0  0  0
  -15.5384  -11.5358  -26.2611 F   0  0  0  0  0  0  0  0  0  0  0  0
  -15.7758  -24.3565  -26.1019 C   0  0  0  0  0  0  0  0  0  0  0  0
  -13.3488  -23.6919  -25.5595 C   0  0  0  0  0  0  0  0  0  0  0  0
  -14.0623  -12.7496  -28.0110 H   0  0  0  0  0  0  0  0  0  0  0  0
  -14.5634  -12.8264  -25.6463 H   0  0  0  0  0  0  0  0  0  0  0  0
  -16.7616  -13.2224  -24.7054 H   0  0  0  0  0  0  0  0  0  0  0  0
  -16.2538  -19.7774  -24.0553 H   0  0  0  0  0  0  0  0  0  0  0  0
  -15.8178  -22.1910  -24.3295 H   0  0  0  0  0  0  0  0  0  0  0  0
  -14.1871  -21.4696  -28.2254 H   0  0  0  0  0  0  0  0  0  0  0  0
  -14.5894  -19.0648  -27.9475 H   0  0  0  0  0  0  0  0  0  0  0  0
  -14.0303  -24.8018  -27.6941 H   0  0  0  0  0  0  0  0  0  0  0  0
  -15.4732  -25.4095  -26.2001 H   0  0  0  0  0  0  0  0  0  0  0  0
  -16.1187  -24.1681  -25.0738 H   0  0  0  0  0  0  0  0  0  0  0  0
  -16.5934  -24.1429  -26.8061 H   0  0  0  0  0  0  0  0  0  0  0  0
  -13.0537  -24.7496  -25.6247 H   0  0  0  0  0  0  0  0  0  0  0  0
  -12.5267  -23.0588  -25.9248 H   0  0  0  0  0  0  0  0  0  0  0  0
  -13.5705  -23.4371  -24.5126 H   0  0  0  0  0  0  0  0  0  0  0  0
  1  2  1  0  0  0  0
  1  3  2  0  0  0  0
  1 20  1  0  0  0  0
  2  4  1  0  0  0  0
  2  5  2  0  0  0  0
  3  6  1  0  0  0  0
  4  7  2  0  0  0  0
  4  8  1  0  0  0  0
  5 11  1  0  0  0  0
  6  7  1  0  0  0  0
  6 21  1  0  0  0  0
  8  9  1  0  0  0  0
  8 10  2  0  0  0  0
  9 11  2  0  0  0  0
 11 12  1  0  0  0  0
 12 13  2  0  0  0  0
 12 17  1  0  0  0  0
 13 14  1  0  0  0  0
 14 15  2  0  0  0  0
 15 16  1  0  0  0  0
 15 18  1  0  0  0  0
 16 17  2  0  0  0  0
 18 19  1  0  0  0  0
 18 22  1  0  0  0  0
 18 23  1  0  0  0  0
  3 24  1  0  0  0  0
  6 25  1  0  0  0  0
  7 26  1  0  0  0  0
 13 27  1  0  0  0  0
 14 28  1  0  0  0  0
 16 29  1  0  0  0  0
 17 30  1  0  0  0  0
 19 31  1  0  0  0  0
 22 32  1  0  0  0  0
 22 33  1  0  0  0  0
 22 34  1  0  0  0  0
 23 35  1  0  0  0  0
 23 36  1  0  0  0  0
 23 37  1  0  0  0  0
M  END
> <Name>
5k

> <IC50[nM]>
9.2

$$$$
5k
  -OEChem-05192314333D
 Structure written by MMmdl.
 37 39  0     1  0  0  0  0  0999 V2000
  -14.4532  -14.7787  -27.4312 C   0  0  3  0  0  0  0  0  0  0  0  0
  -15.1418  -15.5967  -26.5280 C   0  0  0  0  0  0  0  0  0  0  0  0
  -14.5909  -13.3992  -27.3291 C   0  0  0  0  0  0  0  0  0  0  0  0
  -15.9826  -15.0410  -25.5537 C   0  0  0  0  0  0  0  0  0  0  0  0
  -14.9735  -16.9774  -26.6084 N   0  0  0  0  0  0  0  0  0  0  0  0
  -15.4131  -12.8584  -26.3442 C   0  0  0  0  0  0  0  0  0  0  0  0
  -16.1201  -13.6612  -25.4553 C   0  0  0  0  0  0  0  0  0  0  0  0
  -16.7396  -15.9720  -24.6306 C   0  0  0  0  0  0  0  0  0  0  0  0
  -16.4336  -17.2753  -24.8698 N   0  0  0  0  0  0  0  0  0  0  0  0
  -17.5633  -15.6368  -23.7781 O   0  0  0  0  0  0  0  0  0  0  0  0
  -15.5834  -17.7992  -25.8267 C   0  0  0  0  0  0  0  0  0  0  0  0
  -15.4138  -19.2509  -25.9685 C   0  0  0  0  0  0  0  0  0  0  0  0
  -15.7847  -20.1437  -24.9565 C   0  0  0  0  0  0  0  0  0  0  0  0
  -15.5471  -21.5021  -25.1160 C   0  0  0  0  0  0  0  0  0  0  0  0
  -14.9582  -21.9835  -26.2915 C   0  0  0  0  0  0  0  0  0  0  0  0
  -14.6239  -21.0987  -27.3099 C   0  0  0  0  0  0  0  0  0  0  0  0
  -14.8497  -19.7472  -27.1519 C   0  0  0  0  0  0  0  0  0  0  0  0
  -14.5900  -23.4561  -26.4138 C   0  0  0  0  0  0  0  0  0  0  0  0
  -14.2444  -23.8763  -27.7078 O   0  0  0  0  0  0  0  0  0  0  0  0
  -13.6455  -15.3006  -28.3854 F   0  0  0  0  0  0  0  0  0  0  0  0
  -15.5384  -11.5358  -26.2611 F   0  0  0  0  0  0  0  0  0  0  0  0
  -15.7758  -24.3565  -26.1019 C   0  0  0  0  0  0  0  0  0  0  0  0
  -13.3488  -23.6919  -25.5595 C   0  0  0  0  0  0  0  0  0  0  0  0
  -15.3062  -14.8176  -28.1246 H   0  0  0  0  0  0  0  0  0  0  0  0
  -14.0623  -12.7496  -28.0110 H   0  0  0  0  0  0  0  0  0  0  0  0
  -16.7616  -13.2224  -24.7054 H   0  0  0  0  0  0  0  0  0  0  0  0
  -16.2538  -19.7774  -24.0553 H   0  0  0  0  0  0  0  0  0  0  0  0
  -15.8178  -22.1910  -24.3295 H   0  0  0  0  0  0  0  0  0  0  0  0
  -14.1871  -21.4696  -28.2254 H   0  0  0  0  0  0  0  0  0  0  0  0
  -14.5894  -19.0648  -27.9475 H   0  0  0  0  0  0  0  0  0  0  0  0
  -14.0303  -24.8018  -27.6941 H   0  0  0  0  0  0  0  0  0  0  0  0
  -15.4732  -25.4095  -26.2001 H   0  0  0  0  0  0  0  0  0  0  0  0
  -16.1187  -24.1681  -25.0738 H   0  0  0  0  0  0  0  0  0  0  0  0
  -16.5934  -24.1429  -26.8061 H   0  0  0  0  0  0  0  0  0  0  0  0
  -13.0537  -24.7496  -25.6247 H   0  0  0  0  0  0  0  0  0  0  0  0
  -12.5267  -23.0588  -25.9248 H   0  0  0  0  0  0  0  0  0  0  0  0
  -13.5705  -23.4371  -24.5126 H   0  0  0  0  0  0  0  0  0  0  0  0
  1  2  1  0  0  0  0
  1  3  1  0  0  0  0
  1 20  1  0  0  0  0
  2  4  1  0  0  0  0
  2  5  2  0  0  0  0
  3  6  2  0  0  0  0
  4  7  2  0  0  0  0
  4  8  1  0  0  0  0
  5 11  1  0  0  0  0
  6  7  1  0  0  0  0
  6 21  1  0  0  0  0
  8  9  1  0  0  0  0
  8 10  2  0  0  0  0
  9 11  2  0  0  0  0
 11 12  1  0  0  0  0
 12 13  2  0  0  0  0
 12 17  1  0  0  0  0
 13 14  1  0  0  0  0
 14 15  2  0  0  0  0
 15 16  1  0  0  0  0
 15 18  1  0  0  0  0
 16 17  2  0  0  0  0
 18 19  1  0  0  0  0
 18 22  1  0  0  0  0
 18 23  1  0  0  0  0
  1 24  1  0  0  0  0
  3 25  1  0  0  0  0
  7 26  1  0  0  0  0
 13 27  1  0  0  0  0
 14 28  1  0  0  0  0
 16 29  1  0  0  0  0
 17 30  1  0  0  0  0
 19 31  1  0  0  0  0
 22 32  1  0  0  0  0
 22 33  1  0  0  0  0
 22 34  1  0  0  0  0
 23 35  1  0  0  0  0
 23 36  1  0  0  0  0
 23 37  1  0  0  0  0
M  END
> <Name>
5k

> <IC50[nM]>
9.2

$$$$
5k
  -OEChem-05192314333D
 Structure written by MMmdl.
 37 39  0     1  0  0  0  0  0999 V2000
  -14.4532  -14.7787  -27.4312 C   0  0  0  0  0  0  0  0  0  0  0  0
  -15.1418  -15.5967  -26.5280 C   0  0  0  0  0  0  0  0  0  0  0  0
  -14.5909  -13.3992  -27.3291 C   0  0  0  0  0  0  0  0  0  0  0  0
  -15.9826  -15.0410  -25.5537 C   0  0  3  0  0  0  0  0  0  0  0  0
  -14.9735  -16.9774  -26.6084 N   0  0  0  0  0  0  0  0  0  0  0  0
  -15.4131  -12.8584  -26.3442 C   0  0  0  0  0  0  0  0  0  0  0  0
  -16.1201  -13.6612  -25.4553 C   0  0  0  0  0  0  0  0  0  0  0  0
  -16.7396  -15.9720  -24.6306 C   0  0  0  0  0  0  0  0  0  0  0  0
  -16.4336  -17.2753  -24.8698 N   0  0  0  0  0  0  0  0  0  0  0  0
  -17.5633  -15.6368  -23.7781 O   0  0  0  0  0  0  0  0  0  0  0  0
  -15.5834  -17.7992  -25.8267 C   0  0  0  0  0  0  0  0  0  0  0  0
  -15.4138  -19.2509  -25.9685 C   0  0  0  0  0  0  0  0  0  0  0  0
  -15.7847  -20.1437  -24.9565 C   0  0  0  0  0  0  0  0  0  0  0  0
  -15.5471  -21.5021  -25.1160 C   0  0  0  0  0  0  0  0  0  0  0  0
  -14.9582  -21.9835  -26.2915 C   0  0  0  0  0  0  0  0  0  0  0  0
  -14.6239  -21.0987  -27.3099 C   0  0  0  0  0  0  0  0  0  0  0  0
  -14.8497  -19.7472  -27.1519 C   0  0  0  0  0  0  0  0  0  0  0  0
  -14.5900  -23.4561  -26.4138 C   0  0  0  0  0  0  0  0  0  0  0  0
  -14.2444  -23.8763  -27.7078 O   0  0  0  0  0  0  0  0  0  0  0  0
  -13.6455  -15.3006  -28.3854 F   0  0  0  0  0  0  0  0  0  0  0  0
  -15.5384  -11.5358  -26.2611 F   0  0  0  0  0  0  0  0  0  0  0  0
  -15.7758  -24.3565  -26.1019 C   0  0  0  0  0  0  0  0  0  0  0  0
  -13.3488  -23.6919  -25.5595 C   0  0  0  0  0  0  0  0  0  0  0  0
  -14.0623  -12.7496  -28.0110 H   0  0  0  0  0  0  0  0  0  0  0  0
  -15.1444  -15.0117  -24.8420 H   0  0  0  0  0  0  0  0  0  0  0  0
  -16.7616  -13.2224  -24.7054 H   0  0  0  0  0  0  0  0  0  0  0  0
  -16.2538  -19.7774  -24.0553 H   0  0  0  0  0  0  0  0  0  0  0  0
  -15.8178  -22.1910  -24.3295 H   0  0  0  0  0  0  0  0  0  0  0  0
  -14.1871  -21.4696  -28.2254 H   0  0  0  0  0  0  0  0  0  0  0  0
  -14.5894  -19.0648  -27.9475 H   0  0  0  0  0  0  0  0  0  0  0  0
  -14.0303  -24.8018  -27.6941 H   0  0  0  0  0  0  0  0  0  0  0  0
  -15.4732  -25.4095  -26.2001 H   0  0  0  0  0  0  0  0  0  0  0  0
  -16.1187  -24.1681  -25.0738 H   0  0  0  0  0  0  0  0  0  0  0  0
  -16.5934  -24.1429  -26.8061 H   0  0  0  0  0  0  0  0  0  0  0  0
  -13.0537  -24.7496  -25.6247 H   0  0  0  0  0  0  0  0  0  0  0  0
  -12.5267  -23.0588  -25.9248 H   0  0  0  0  0  0  0  0  0  0  0  0
  -13.5705  -23.4371  -24.5126 H   0  0  0  0  0  0  0  0  0  0  0  0
  1  2  1  0  0  0  0
  1  3  2  0  0  0  0
  1 20  1  0  0  0  0
  2  4  1  0  0  0  0
  2  5  2  0  0  0  0
  3  6  1  0  0  0  0
  4  7  1  0  0  0  0
  4  8  1  0  0  0  0
  5 11  1  0  0  0  0
  6  7  2  0  0  0  0
  6 21  1  0  0  0  0
  8  9  1  0  0  0  0
  8 10  2  0  0  0  0
  9 11  2  0  0  0  0
 11 12  1  0  0  0  0
 12 13  2  0  0  0  0
 12 17  1  0  0  0  0
 13 14  1  0  0  0  0
 14 15  2  0  0  0  0
 15 16  1  0  0  0  0
 15 18  1  0  0  0  0
 16 17  2  0  0  0  0
 18 19  1  0  0  0  0
 18 22  1  0  0  0  0
 18 23  1  0  0  0  0
  3 24  1  0  0  0  0
  4 25  1  0  0  0  0
  7 26  1  0  0  0  0
 13 27  1  0  0  0  0
 14 28  1  0  0  0  0
 16 29  1  0  0  0  0
 17 30  1  0  0  0  0
 19 31  1  0  0  0  0
 22 32  1  0  0  0  0
 22 33  1  0  0  0  0
 22 34  1  0  0  0  0
 23 35  1  0  0  0  0
 23 36  1  0  0  0  0
 23 37  1  0  0  0  0
M  END
> <Name>
5k

> <IC50[nM]>
9.2

$$$$
