8f
  -OEChem-05192314333D
 Structure written by MMmdl.
 48 51  0     1  0  0  0  0  0999 V2000
  -14.4976  -14.8078  -27.6041 C   0  0  0  0  0  0  0  0  0  0  0  0
  -15.0860  -15.6146  -26.6121 C   0  0  0  0  0  0  0  0  0  0  0  0
  -14.5776  -13.4189  -27.4910 C   0  0  0  0  0  0  0  0  0  0  0  0
  -15.7974  -15.0175  -25.5617 C   0  0  0  0  0  0  0  0  0  0  0  0
  -14.9497  -17.0161  -26.6693 N   0  0  0  0  0  0  0  0  0  0  0  0
  -15.2599  -12.8300  -26.4299 C   0  0  0  0  0  0  0  0  0  0  0  0
  -15.8868  -13.6238  -25.4651 C   0  0  0  0  0  0  0  0  0  0  0  0
  -16.4709  -15.9214  -24.5493 C   0  0  0  0  0  0  0  0  0  0  0  0
  -16.1516  -17.2326  -24.7414 N   0  0  0  0  0  0  0  0  0  0  0  0
  -17.2464  -15.5613  -23.6634 O   0  0  0  0  0  0  0  0  0  0  0  0
  -15.4317  -17.8110  -25.7710 C   0  0  0  0  0  0  0  0  0  0  0  0
  -15.2745  -19.2883  -25.8445 C   0  0  0  0  0  0  0  0  0  0  0  0
  -14.7650  -19.8714  -27.0158 C   0  0  0  0  0  0  0  0  0  0  0  0
  -14.6263  -21.2503  -27.1285 C   0  0  0  0  0  0  0  0  0  0  0  0
  -14.9818  -22.0879  -26.0683 C   0  0  0  0  0  0  0  0  0  0  0  0
  -15.4738  -21.5135  -24.8915 C   0  0  0  0  0  0  0  0  0  0  0  0
  -15.6247  -20.1316  -24.7809 C   0  0  0  0  0  0  0  0  0  0  0  0
  -13.7514  -15.3866  -28.7929 C   0  0  0  0  0  0  0  0  0  0  0  0
  -15.3111  -11.4823  -26.3542 F   0  0  0  0  0  0  0  0  0  0  0  0
  -14.9368  -23.6188  -26.2176 C   0  0  1  0  0  0  0  0  0  0  0  0
  -16.1502  -24.1096  -27.0129 C   0  0  0  0  0  0  0  0  0  0  0  0
  -16.1516  -25.6356  -27.1525 C   0  0  0  0  0  0  0  0  0  0  0  0
  -14.9512  -26.0113  -28.0249 N   0  0  1  0  0  0  0  0  0  0  0  0
  -13.6603  -25.6760  -27.2735 C   0  0  0  0  0  0  0  0  0  0  0  0
  -13.6303  -24.1771  -26.8303 C   0  0  0  0  0  0  0  0  0  0  0  0
  -14.9970  -27.5130  -28.4020 C   0  0  0  0  0  0  0  0  0  0  0  0
  -14.1051  -12.7943  -28.2347 H   0  0  0  0  0  0  0  0  0  0  0  0
  -16.4342  -13.1668  -24.6539 H   0  0  0  0  0  0  0  0  0  0  0  0
  -16.4840  -17.8639  -24.0407 H   0  0  0  0  0  0  0  0  0  0  0  0
  -14.4763  -19.2389  -27.8422 H   0  0  0  0  0  0  0  0  0  0  0  0
  -14.2408  -21.6771  -28.0426 H   0  0  0  0  0  0  0  0  0  0  0  0
  -15.7399  -22.1477  -24.0588 H   0  0  0  0  0  0  0  0  0  0  0  0
  -16.0149  -19.7073  -23.8676 H   0  0  0  0  0  0  0  0  0  0  0  0
  -14.4521  -15.5405  -29.6268 H   0  0  0  0  0  0  0  0  0  0  0  0
  -12.9595  -14.6891  -29.1035 H   0  0  0  0  0  0  0  0  0  0  0  0
  -13.3015  -16.3496  -28.5097 H   0  0  0  0  0  0  0  0  0  0  0  0
  -15.0215  -24.0425  -25.2060 H   0  0  0  0  0  0  0  0  0  0  0  0
  -17.0680  -23.7976  -26.4931 H   0  0  0  0  0  0  0  0  0  0  0  0
  -16.1258  -23.6591  -28.0161 H   0  0  0  0  0  0  0  0  0  0  0  0
  -16.0591  -26.1048  -26.1619 H   0  0  0  0  0  0  0  0  0  0  0  0
  -17.0843  -25.9695  -27.6307 H   0  0  0  0  0  0  0  0  0  0  0  0
  -13.5899  -26.3146  -26.3806 H   0  0  0  0  0  0  0  0  0  0  0  0
  -12.8016  -25.8714  -27.9326 H   0  0  0  0  0  0  0  0  0  0  0  0
  -13.3889  -23.5703  -27.7155 H   0  0  0  0  0  0  0  0  0  0  0  0
  -12.8334  -24.0649  -26.0804 H   0  0  0  0  0  0  0  0  0  0  0  0
  -14.1270  -27.7612  -29.0277 H   0  0  0  0  0  0  0  0  0  0  0  0
  -14.9753  -28.1218  -27.4861 H   0  0  0  0  0  0  0  0  0  0  0  0
  -15.9215  -27.7228  -28.9599 H   0  0  0  0  0  0  0  0  0  0  0  0
  1  2  2  0  0  0  0
  1  3  1  0  0  0  0
  1 18  1  0  0  0  0
  2  4  1  0  0  0  0
  2  5  1  0  0  0  0
  3  6  2  0  0  0  0
  4  7  2  0  0  0  0
  4  8  1  0  0  0  0
  5 11  2  0  0  0  0
  6  7  1  0  0  0  0
  6 19  1  0  0  0  0
  8  9  1  0  0  0  0
  8 10  2  0  0  0  0
  9 11  1  0  0  0  0
 11 12  1  0  0  0  0
 12 13  2  0  0  0  0
 12 17  1  0  0  0  0
 13 14  1  0  0  0  0
 14 15  2  0  0  0  0
 15 16  1  0  0  0  0
 15 20  1  0  0  0  0
 16 17  2  0  0  0  0
 20 21  1  0  0  0  0
 20 25  1  0  0  0  0
 21 22  1  0  0  0  0
 22 23  1  0  0  0  0
 23 24  1  0  0  0  0
 23 26  1  0  0  0  0
 24 25  1  0  0  0  0
  3 27  1  0  0  0  0
  7 28  1  0  0  0  0
  9 29  1  0  0  0  0
 13 30  1  0  0  0  0
 14 31  1  0  0  0  0
 16 32  1  0  0  0  0
 17 33  1  0  0  0  0
 18 34  1  0  0  0  0
 18 35  1  0  0  0  0
 18 36  1  0  0  0  0
 20 37  1  0  0  0  0
 21 38  1  0  0  0  0
 21 39  1  0  0  0  0
 22 40  1  0  0  0  0
 22 41  1  0  0  0  0
 24 42  1  0  0  0  0
 24 43  1  0  0  0  0
 25 44  1  0  0  0  0
 25 45  1  0  0  0  0
 26 46  1  0  0  0  0
 26 47  1  0  0  0  0
 26 48  1  0  0  0  0
M  END
> <Name>
8f

> <IC50[nM]>
2.2

$$$$
8f
  -OEChem-05192314333D
 Structure written by MMmdl.
 48 51  0     1  0  0  0  0  0999 V2000
  -14.4976  -14.8078  -27.6041 C   0  0  0  0  0  0  0  0  0  0  0  0
  -15.0860  -15.6146  -26.6121 C   0  0  0  0  0  0  0  0  0  0  0  0
  -14.5776  -13.4189  -27.4910 C   0  0  0  0  0  0  0  0  0  0  0  0
  -15.7974  -15.0175  -25.5617 C   0  0  0  0  0  0  0  0  0  0  0  0
  -14.9497  -17.0161  -26.6693 N   0  0  0  0  0  0  0  0  0  0  0  0
  -15.2599  -12.8300  -26.4299 C   0  0  0  0  0  0  0  0  0  0  0  0
  -15.8868  -13.6238  -25.4651 C   0  0  0  0  0  0  0  0  0  0  0  0
  -16.4709  -15.9214  -24.5493 C   0  0  0  0  0  0  0  0  0  0  0  0
  -16.1516  -17.2326  -24.7414 N   0  0  0  0  0  0  0  0  0  0  0  0
  -17.2464  -15.5613  -23.6634 O   0  0  0  0  0  0  0  0  0  0  0  0
  -15.4317  -17.8110  -25.7710 C   0  0  0  0  0  0  0  0  0  0  0  0
  -15.2745  -19.2883  -25.8445 C   0  0  0  0  0  0  0  0  0  0  0  0
  -14.7650  -19.8714  -27.0158 C   0  0  0  0  0  0  0  0  0  0  0  0
  -14.6263  -21.2503  -27.1285 C   0  0  0  0  0  0  0  0  0  0  0  0
  -14.9818  -22.0879  -26.0683 C   0  0  0  0  0  0  0  0  0  0  0  0
  -15.4738  -21.5135  -24.8915 C   0  0  0  0  0  0  0  0  0  0  0  0
  -15.6247  -20.1316  -24.7809 C   0  0  0  0  0  0  0  0  0  0  0  0
  -13.7514  -15.3866  -28.7929 C   0  0  0  0  0  0  0  0  0  0  0  0
  -15.3111  -11.4823  -26.3542 F   0  0  0  0  0  0  0  0  0  0  0  0
  -14.9368  -23.6188  -26.2176 C   0  0  1  0  0  0  0  0  0  0  0  0
  -16.1502  -24.1096  -27.0129 C   0  0  0  0  0  0  0  0  0  0  0  0
  -16.1516  -25.6356  -27.1525 C   0  0  0  0  0  0  0  0  0  0  0  0
  -14.9512  -26.0113  -28.0249 N   0  0  1  0  0  0  0  0  0  0  0  0
  -13.6603  -25.6760  -27.2735 C   0  0  0  0  0  0  0  0  0  0  0  0
  -13.6303  -24.1771  -26.8303 C   0  0  0  0  0  0  0  0  0  0  0  0
  -14.9970  -27.5130  -28.4020 C   0  0  0  0  0  0  0  0  0  0  0  0
  -14.1051  -12.7943  -28.2347 H   0  0  0  0  0  0  0  0  0  0  0  0
  -14.4562  -17.4150  -27.4422 H   0  0  0  0  0  0  0  0  0  0  0  0
  -16.4342  -13.1668  -24.6539 H   0  0  0  0  0  0  0  0  0  0  0  0
  -14.4763  -19.2389  -27.8422 H   0  0  0  0  0  0  0  0  0  0  0  0
  -14.2408  -21.6771  -28.0426 H   0  0  0  0  0  0  0  0  0  0  0  0
  -15.7399  -22.1477  -24.0588 H   0  0  0  0  0  0  0  0  0  0  0  0
  -16.0149  -19.7073  -23.8676 H   0  0  0  0  0  0  0  0  0  0  0  0
  -14.4521  -15.5405  -29.6268 H   0  0  0  0  0  0  0  0  0  0  0  0
  -12.9595  -14.6891  -29.1035 H   0  0  0  0  0  0  0  0  0  0  0  0
  -13.3015  -16.3496  -28.5097 H   0  0  0  0  0  0  0  0  0  0  0  0
  -15.0215  -24.0425  -25.2060 H   0  0  0  0  0  0  0  0  0  0  0  0
  -17.0680  -23.7976  -26.4931 H   0  0  0  0  0  0  0  0  0  0  0  0
  -16.1258  -23.6591  -28.0161 H   0  0  0  0  0  0  0  0  0  0  0  0
  -16.0591  -26.1048  -26.1619 H   0  0  0  0  0  0  0  0  0  0  0  0
  -17.0843  -25.9695  -27.6307 H   0  0  0  0  0  0  0  0  0  0  0  0
  -13.5899  -26.3146  -26.3806 H   0  0  0  0  0  0  0  0  0  0  0  0
  -12.8016  -25.8714  -27.9326 H   0  0  0  0  0  0  0  0  0  0  0  0
  -13.3889  -23.5703  -27.7155 H   0  0  0  0  0  0  0  0  0  0  0  0
  -12.8334  -24.0649  -26.0804 H   0  0  0  0  0  0  0  0  0  0  0  0
  -14.1270  -27.7612  -29.0277 H   0  0  0  0  0  0  0  0  0  0  0  0
  -14.9753  -28.1218  -27.4861 H   0  0  0  0  0  0  0  0  0  0  0  0
  -15.9215  -27.7228  -28.9599 H   0  0  0  0  0  0  0  0  0  0  0  0
  1  2  2  0  0  0  0
  1  3  1  0  0  0  0
  1 18  1  0  0  0  0
  2  4  1  0  0  0  0
  2  5  1  0  0  0  0
  3  6  2  0  0  0  0
  4  7  2  0  0  0  0
  4  8  1  0  0  0  0
  5 11  1  0  0  0  0
  6  7  1  0  0  0  0
  6 19  1  0  0  0  0
  8  9  1  0  0  0  0
  8 10  2  0  0  0  0
  9 11  2  0  0  0  0
 11 12  1  0  0  0  0
 12 13  2  0  0  0  0
 12 17  1  0  0  0  0
 13 14  1  0  0  0  0
 14 15  2  0  0  0  0
 15 16  1  0  0  0  0
 15 20  1  0  0  0  0
 16 17  2  0  0  0  0
 20 21  1  0  0  0  0
 20 25  1  0  0  0  0
 21 22  1  0  0  0  0
 22 23  1  0  0  0  0
 23 24  1  0  0  0  0
 23 26  1  0  0  0  0
 24 25  1  0  0  0  0
  3 27  1  0  0  0  0
  5 28  1  0  0  0  0
  7 29  1  0  0  0  0
 13 30  1  0  0  0  0
 14 31  1  0  0  0  0
 16 32  1  0  0  0  0
 17 33  1  0  0  0  0
 18 34  1  0  0  0  0
 18 35  1  0  0  0  0
 18 36  1  0  0  0  0
 20 37  1  0  0  0  0
 21 38  1  0  0  0  0
 21 39  1  0  0  0  0
 22 40  1  0  0  0  0
 22 41  1  0  0  0  0
 24 42  1  0  0  0  0
 24 43  1  0  0  0  0
 25 44  1  0  0  0  0
 25 45  1  0  0  0  0
 26 46  1  0  0  0  0
 26 47  1  0  0  0  0
 26 48  1  0  0  0  0
M  END
> <Name>
8f

> <IC50[nM]>
2.2

$$$$
8f
  -OEChem-05192314333D
 Structure written by MMmdl.
 48 51  0     1  0  0  0  0  0999 V2000
  -14.4976  -14.8078  -27.6041 C   0  0  0  0  0  0  0  0  0  0  0  0
  -15.0860  -15.6146  -26.6121 C   0  0  0  0  0  0  0  0  0  0  0  0
  -14.5776  -13.4189  -27.4910 C   0  0  0  0  0  0  0  0  0  0  0  0
  -15.7974  -15.0175  -25.5617 C   0  0  0  0  0  0  0  0  0  0  0  0
  -14.9497  -17.0161  -26.6693 N   0  0  0  0  0  0  0  0  0  0  0  0
  -15.2599  -12.8300  -26.4299 C   0  0  0  0  0  0  0  0  0  0  0  0
  -15.8868  -13.6238  -25.4651 C   0  0  0  0  0  0  0  0  0  0  0  0
  -16.4709  -15.9214  -24.5493 C   0  0  0  0  0  0  0  0  0  0  0  0
  -16.1516  -17.2326  -24.7414 N   0  0  0  0  0  0  0  0  0  0  0  0
  -17.2464  -15.5613  -23.6634 O   0  0  0  0  0  0  0  0  0  0  0  0
  -15.4317  -17.8110  -25.7710 C   0  0  0  0  0  0  0  0  0  0  0  0
  -15.2745  -19.2883  -25.8445 C   0  0  0  0  0  0  0  0  0  0  0  0
  -14.7650  -19.8714  -27.0158 C   0  0  0  0  0  0  0  0  0  0  0  0
  -14.6263  -21.2503  -27.1285 C   0  0  0  0  0  0  0  0  0  0  0  0
  -14.9818  -22.0879  -26.0683 C   0  0  0  0  0  0  0  0  0  0  0  0
  -15.4738  -21.5135  -24.8915 C   0  0  0  0  0  0  0  0  0  0  0  0
  -15.6247  -20.1316  -24.7809 C   0  0  0  0  0  0  0  0  0  0  0  0
  -13.7514  -15.3866  -28.7929 C   0  0  0  0  0  0  0  0  0  0  0  0
  -15.3111  -11.4823  -26.3542 F   0  0  0  0  0  0  0  0  0  0  0  0
  -14.9368  -23.6188  -26.2176 C   0  0  1  0  0  0  0  0  0  0  0  0
  -16.1502  -24.1096  -27.0129 C   0  0  0  0  0  0  0  0  0  0  0  0
  -16.1516  -25.6356  -27.1525 C   0  0  0  0  0  0  0  0  0  0  0  0
  -14.9512  -26.0113  -28.0249 N   0  0  1  0  0  0  0  0  0  0  0  0
  -13.6603  -25.6760  -27.2735 C   0  0  0  0  0  0  0  0  0  0  0  0
  -13.6303  -24.1771  -26.8303 C   0  0  0  0  0  0  0  0  0  0  0  0
  -14.9970  -27.5130  -28.4020 C   0  0  0  0  0  0  0  0  0  0  0  0
  -14.1051  -12.7943  -28.2347 H   0  0  0  0  0  0  0  0  0  0  0  0
  -16.4342  -13.1668  -24.6539 H   0  0  0  0  0  0  0  0  0  0  0  0
  -17.5515  -16.3207  -23.1811 H   0  0  0  0  0  0  0  0  0  0  0  0
  -14.4763  -19.2389  -27.8422 H   0  0  0  0  0  0  0  0  0  0  0  0
  -14.2408  -21.6771  -28.0426 H   0  0  0  0  0  0  0  0  0  0  0  0
  -15.7399  -22.1477  -24.0588 H   0  0  0  0  0  0  0  0  0  0  0  0
  -16.0149  -19.7073  -23.8676 H   0  0  0  0  0  0  0  0  0  0  0  0
  -14.4521  -15.5405  -29.6268 H   0  0  0  0  0  0  0  0  0  0  0  0
  -12.9595  -14.6891  -29.1035 H   0  0  0  0  0  0  0  0  0  0  0  0
  -13.3015  -16.3496  -28.5097 H   0  0  0  0  0  0  0  0  0  0  0  0
  -15.0215  -24.0425  -25.2060 H   0  0  0  0  0  0  0  0  0  0  0  0
  -17.0680  -23.7976  -26.4931 H   0  0  0  0  0  0  0  0  0  0  0  0
  -16.1258  -23.6591  -28.0161 H   0  0  0  0  0  0  0  0  0  0  0  0
  -16.0591  -26.1048  -26.1619 H   0  0  0  0  0  0  0  0  0  0  0  0
  -17.0843  -25.9695  -27.6307 H   0  0  0  0  0  0  0  0  0  0  0  0
  -13.5899  -26.3146  -26.3806 H   0  0  0  0  0  0  0  0  0  0  0  0
  -12.8016  -25.8714  -27.9326 H   0  0  0  0  0  0  0  0  0  0  0  0
  -13.3889  -23.5703  -27.7155 H   0  0  0  0  0  0  0  0  0  0  0  0
  -12.8334  -24.0649  -26.0804 H   0  0  0  0  0  0  0  0  0  0  0  0
  -14.1270  -27.7612  -29.0277 H   0  0  0  0  0  0  0  0  0  0  0  0
  -14.9753  -28.1218  -27.4861 H   0  0  0  0  0  0  0  0  0  0  0  0
  -15.9215  -27.7228  -28.9599 H   0  0  0  0  0  0  0  0  0  0  0  0
  1  2  2  0  0  0  0
  1  3  1  0  0  0  0
  1 18  1  0  0  0  0
  2  4  1  0  0  0  0
  2  5  1  0  0  0  0
  3  6  2  0  0  0  0
  4  7  2  0  0  0  0
  4  8  1  0  0  0  0
  5 11  2  0  0  0  0
  6  7  1  0  0  0  0
  6 19  1  0  0  0  0
  8  9  2  0  0  0  0
  8 10  1  0  0  0  0
  9 11  1  0  0  0  0
 11 12  1  0  0  0  0
 12 13  2  0  0  0  0
 12 17  1  0  0  0  0
 13 14  1  0  0  0  0
 14 15  2  0  0  0  0
 15 16  1  0  0  0  0
 15 20  1  0  0  0  0
 16 17  2  0  0  0  0
 20 21  1  0  0  0  0
 20 25  1  0  0  0  0
 21 22  1  0  0  0  0
 22 23  1  0  0  0  0
 23 24  1  0  0  0  0
 23 26  1  0  0  0  0
 24 25  1  0  0  0  0
  3 27  1  0  0  0  0
  7 28  1  0  0  0  0
 10 29  1  0  0  0  0
 13 30  1  0  0  0  0
 14 31  1  0  0  0  0
 16 32  1  0  0  0  0
 17 33  1  0  0  0  0
 18 34  1  0  0  0  0
 18 35  1  0  0  0  0
 18 36  1  0  0  0  0
 20 37  1  0  0  0  0
 21 38  1  0  0  0  0
 21 39  1  0  0  0  0
 22 40  1  0  0  0  0
 22 41  1  0  0  0  0
 24 42  1  0  0  0  0
 24 43  1  0  0  0  0
 25 44  1  0  0  0  0
 25 45  1  0  0  0  0
 26 46  1  0  0  0  0
 26 47  1  0  0  0  0
 26 48  1  0  0  0  0
M  END
> <Name>
8f

> <IC50[nM]>
2.2

$$$$
8f
  -OEChem-05192314333D
 Structure written by MMmdl.
 48 51  0     1  0  0  0  0  0999 V2000
  -14.4976  -14.8078  -27.6041 C   0  0  0  0  0  0  0  0  0  0  0  0
  -15.0860  -15.6146  -26.6121 C   0  0  0  0  0  0  0  0  0  0  0  0
  -14.5776  -13.4189  -27.4910 C   0  0  0  0  0  0  0  0  0  0  0  0
  -15.7974  -15.0175  -25.5617 C   0  0  0  0  0  0  0  0  0  0  0  0
  -14.9497  -17.0161  -26.6693 N   0  0  0  0  0  0  0  0  0  0  0  0
  -15.2599  -12.8300  -26.4299 C   0  0  0  0  0  0  0  0  0  0  0  0
  -15.8868  -13.6238  -25.4651 C   0  0  0  0  0  0  0  0  0  0  0  0
  -16.4709  -15.9214  -24.5493 C   0  0  0  0  0  0  0  0  0  0  0  0
  -16.1516  -17.2326  -24.7414 N   0  0  0  0  0  0  0  0  0  0  0  0
  -17.2464  -15.5613  -23.6634 O   0  0  0  0  0  0  0  0  0  0  0  0
  -15.4317  -17.8110  -25.7710 C   0  0  0  0  0  0  0  0  0  0  0  0
  -15.2745  -19.2883  -25.8445 C   0  0  0  0  0  0  0  0  0  0  0  0
  -14.7650  -19.8714  -27.0158 C   0  0  0  0  0  0  0  0  0  0  0  0
  -14.6263  -21.2503  -27.1285 C   0  0  0  0  0  0  0  0  0  0  0  0
  -14.9818  -22.0879  -26.0683 C   0  0  0  0  0  0  0  0  0  0  0  0
  -15.4738  -21.5135  -24.8915 C   0  0  0  0  0  0  0  0  0  0  0  0
  -15.6247  -20.1316  -24.7809 C   0  0  0  0  0  0  0  0  0  0  0  0
  -13.7514  -15.3866  -28.7929 C   0  0  0  0  0  0  0  0  0  0  0  0
  -15.3111  -11.4823  -26.3542 F   0  0  0  0  0  0  0  0  0  0  0  0
  -14.9368  -23.6188  -26.2176 C   0  0  1  0  0  0  0  0  0  0  0  0
  -16.1502  -24.1096  -27.0129 C   0  0  0  0  0  0  0  0  0  0  0  0
  -16.1516  -25.6356  -27.1525 C   0  0  0  0  0  0  0  0  0  0  0  0
  -14.9512  -26.0113  -28.0249 N   0  0  1  0  0  0  0  0  0  0  0  0
  -13.6603  -25.6760  -27.2735 C   0  0  0  0  0  0  0  0  0  0  0  0
  -13.6303  -24.1771  -26.8303 C   0  0  0  0  0  0  0  0  0  0  0  0
  -14.9970  -27.5130  -28.4020 C   0  0  0  0  0  0  0  0  0  0  0  0
  -14.1051  -12.7943  -28.2347 H   0  0  0  0  0  0  0  0  0  0  0  0
  -14.3360  -12.8305  -25.8329 H   0  0  0  0  0  0  0  0  0  0  0  0
  -16.4342  -13.1668  -24.6539 H   0  0  0  0  0  0  0  0  0  0  0  0
  -14.4763  -19.2389  -27.8422 H   0  0  0  0  0  0  0  0  0  0  0  0
  -14.2408  -21.6771  -28.0426 H   0  0  0  0  0  0  0  0  0  0  0  0
  -15.7399  -22.1477  -24.0588 H   0  0  0  0  0  0  0  0  0  0  0  0
  -16.0149  -19.7073  -23.8676 H   0  0  0  0  0  0  0  0  0  0  0  0
  -13.3823  -14.5683  -29.4286 H   0  0  0  0  0  0  0  0  0  0  0  0
  -12.9007  -15.9853  -28.4355 H   0  0  0  0  0  0  0  0  0  0  0  0
  -14.4305  -16.0260  -29.3760 H   0  0  0  0  0  0  0  0  0  0  0  0
  -15.0215  -24.0425  -25.2060 H   0  0  0  0  0  0  0  0  0  0  0  0
  -17.0680  -23.7976  -26.4931 H   0  0  0  0  0  0  0  0  0  0  0  0
  -16.1258  -23.6591  -28.0161 H   0  0  0  0  0  0  0  0  0  0  0  0
  -16.0591  -26.1048  -26.1619 H   0  0  0  0  0  0  0  0  0  0  0  0
  -17.0843  -25.9695  -27.6307 H   0  0  0  0  0  0  0  0  0  0  0  0
  -13.5899  -26.3146  -26.3806 H   0  0  0  0  0  0  0  0  0  0  0  0
  -12.8016  -25.8714  -27.9326 H   0  0  0  0  0  0  0  0  0  0  0  0
  -13.3889  -23.5703  -27.7155 H   0  0  0  0  0  0  0  0  0  0  0  0
  -12.8334  -24.0649  -26.0804 H   0  0  0  0  0  0  0  0  0  0  0  0
  -14.1270  -27.7612  -29.0277 H   0  0  0  0  0  0  0  0  0  0  0  0
  -14.9753  -28.1218  -27.4861 H   0  0  0  0  0  0  0  0  0  0  0  0
  -15.9215  -27.7228  -28.9599 H   0  0  0  0  0  0  0  0  0  0  0  0
  1  2  1  0  0  0  0
  1  3  2  0  0  0  0
  1 18  1  0  0  0  0
  2  4  1  0  0  0  0
  2  5  2  0  0  0  0
  3  6  1  0  0  0  0
  4  7  2  0  0  0  0
  4  8  1  0  0  0  0
  5 11  1  0  0  0  0
  6  7  1  0  0  0  0
  6 19  1  0  0  0  0
  8  9  1  0  0  0  0
  8 10  2  0  0  0  0
  9 11  2  0  0  0  0
 11 12  1  0  0  0  0
 12 13  2  0  0  0  0
 12 17  1  0  0  0  0
 13 14  1  0  0  0  0
 14 15  2  0  0  0  0
 15 16  1  0  0  0  0
 15 20  1  0  0  0  0
 16 17  2  0  0  0  0
 20 21  1  0  0  0  0
 20 25  1  0  0  0  0
 21 22  1  0  0  0  0
 22 23  1  0  0  0  0
 23 24  1  0  0  0  0
 23 26  1  0  0  0  0
 24 25  1  0  0  0  0
  3 27  1  0  0  0  0
  6 28  1  0  0  0  0
  7 29  1  0  0  0  0
 13 30  1  0  0  0  0
 14 31  1  0  0  0  0
 16 32  1  0  0  0  0
 17 33  1  0  0  0  0
 18 34  1  0  0  0  0
 18 35  1  0  0  0  0
 18 36  1  0  0  0  0
 20 37  1  0  0  0  0
 21 38  1  0  0  0  0
 21 39  1  0  0  0  0
 22 40  1  0  0  0  0
 22 41  1  0  0  0  0
 24 42  1  0  0  0  0
 24 43  1  0  0  0  0
 25 44  1  0  0  0  0
 25 45  1  0  0  0  0
 26 46  1  0  0  0  0
 26 47  1  0  0  0  0
 26 48  1  0  0  0  0
M  END
> <Name>
8f

> <IC50[nM]>
2.2

$$$$
8f
  -OEChem-05192314333D
 Structure written by MMmdl.
 48 51  0     1  0  0  0  0  0999 V2000
  -14.4976  -14.8078  -27.6041 C   0  0  0  0  0  0  0  0  0  0  0  0
  -15.0860  -15.6146  -26.6121 C   0  0  0  0  0  0  0  0  0  0  0  0
  -14.5776  -13.4189  -27.4910 C   0  0  0  0  0  0  0  0  0  0  0  0
  -15.7974  -15.0175  -25.5617 C   0  0  0  0  0  0  0  0  0  0  0  0
  -14.9497  -17.0161  -26.6693 N   0  0  0  0  0  0  0  0  0  0  0  0
  -15.2599  -12.8300  -26.4299 C   0  0  0  0  0  0  0  0  0  0  0  0
  -15.8868  -13.6238  -25.4651 C   0  0  0  0  0  0  0  0  0  0  0  0
  -16.4709  -15.9214  -24.5493 C   0  0  0  0  0  0  0  0  0  0  0  0
  -16.1516  -17.2326  -24.7414 N   0  0  0  0  0  0  0  0  0  0  0  0
  -17.2464  -15.5613  -23.6634 O   0  0  0  0  0  0  0  0  0  0  0  0
  -15.4317  -17.8110  -25.7710 C   0  0  0  0  0  0  0  0  0  0  0  0
  -15.2745  -19.2883  -25.8445 C   0  0  0  0  0  0  0  0  0  0  0  0
  -14.7650  -19.8714  -27.0158 C   0  0  0  0  0  0  0  0  0  0  0  0
  -14.6263  -21.2503  -27.1285 C   0  0  0  0  0  0  0  0  0  0  0  0
  -14.9818  -22.0879  -26.0683 C   0  0  0  0  0  0  0  0  0  0  0  0
  -15.4738  -21.5135  -24.8915 C   0  0  0  0  0  0  0  0  0  0  0  0
  -15.6247  -20.1316  -24.7809 C   0  0  0  0  0  0  0  0  0  0  0  0
  -13.7514  -15.3866  -28.7929 C   0  0  0  0  0  0  0  0  0  0  0  0
  -15.3111  -11.4823  -26.3542 F   0  0  0  0  0  0  0  0  0  0  0  0
  -14.9368  -23.6188  -26.2176 C   0  0  1  0  0  0  0  0  0  0  0  0
  -16.1502  -24.1096  -27.0129 C   0  0  0  0  0  0  0  0  0  0  0  0
  -16.1516  -25.6356  -27.1525 C   0  0  0  0  0  0  0  0  0  0  0  0
  -14.9512  -26.0113  -28.0249 N   0  0  1  0  0  0  0  0  0  0  0  0
  -13.6603  -25.6760  -27.2735 C   0  0  0  0  0  0  0  0  0  0  0  0
  -13.6303  -24.1771  -26.8303 C   0  0  0  0  0  0  0  0  0  0  0  0
  -14.9970  -27.5130  -28.4020 C   0  0  0  0  0  0  0  0  0  0  0  0
  -15.4352  -14.8209  -28.1792 H   0  0  0  0  0  0  0  0  0  0  0  0
  -14.1051  -12.7943  -28.2347 H   0  0  0  0  0  0  0  0  0  0  0  0
  -16.4342  -13.1668  -24.6539 H   0  0  0  0  0  0  0  0  0  0  0  0
  -14.4763  -19.2389  -27.8422 H   0  0  0  0  0  0  0  0  0  0  0  0
  -14.2408  -21.6771  -28.0426 H   0  0  0  0  0  0  0  0  0  0  0  0
  -15.7399  -22.1477  -24.0588 H   0  0  0  0  0  0  0  0  0  0  0  0
  -16.0149  -19.7073  -23.8676 H   0  0  0  0  0  0  0  0  0  0  0  0
  -13.3823  -14.5683  -29.4286 H   0  0  0  0  0  0  0  0  0  0  0  0
  -12.9007  -15.9853  -28.4355 H   0  0  0  0  0  0  0  0  0  0  0  0
  -14.4305  -16.0260  -29.3760 H   0  0  0  0  0  0  0  0  0  0  0  0
  -15.0215  -24.0425  -25.2060 H   0  0  0  0  0  0  0  0  0  0  0  0
  -17.0680  -23.7976  -26.4931 H   0  0  0  0  0  0  0  0  0  0  0  0
  -16.1258  -23.6591  -28.0161 H   0  0  0  0  0  0  0  0  0  0  0  0
  -16.0591  -26.1048  -26.1619 H   0  0  0  0  0  0  0  0  0  0  0  0
  -17.0843  -25.9695  -27.6307 H   0  0  0  0  0  0  0  0  0  0  0  0
  -13.5899  -26.3146  -26.3806 H   0  0  0  0  0  0  0  0  0  0  0  0
  -12.8016  -25.8714  -27.9326 H   0  0  0  0  0  0  0  0  0  0  0  0
  -13.3889  -23.5703  -27.7155 H   0  0  0  0  0  0  0  0  0  0  0  0
  -12.8334  -24.0649  -26.0804 H   0  0  0  0  0  0  0  0  0  0  0  0
  -14.1270  -27.7612  -29.0277 H   0  0  0  0  0  0  0  0  0  0  0  0
  -14.9753  -28.1218  -27.4861 H   0  0  0  0  0  0  0  0  0  0  0  0
  -15.9215  -27.7228  -28.9599 H   0  0  0  0  0  0  0  0  0  0  0  0
  1  2  1  0  0  0  0
  1  3  1  0  0  0  0
  1 18  1  0  0  0  0
  2  4  1  0  0  0  0
  2  5  2  0  0  0  0
  3  6  2  0  0  0  0
  4  7  2  0  0  0  0
  4  8  1  0  0  0  0
  5 11  1  0  0  0  0
  6  7  1  0  0  0  0
  6 19  1  0  0  0  0
  8  9  1  0  0  0  0
  8 10  2  0  0  0  0
  9 11  2  0  0  0  0
 11 12  1  0  0  0  0
 12 13  2  0  0  0  0
 12 17  1  0  0  0  0
 13 14  1  0  0  0  0
 14 15  2  0  0  0  0
 15 16  1  0  0  0  0
 15 20  1  0  0  0  0
 16 17  2  0  0  0  0
 20 21  1  0  0  0  0
 20 25  1  0  0  0  0
 21 22  1  0  0  0  0
 22 23  1  0  0  0  0
 23 24  1  0  0  0  0
 23 26  1  0  0  0  0
 24 25  1  0  0  0  0
  1 27  1  0  0  0  0
  3 28  1  0  0  0  0
  7 29  1  0  0  0  0
 13 30  1  0  0  0  0
 14 31  1  0  0  0  0
 16 32  1  0  0  0  0
 17 33  1  0  0  0  0
 18 34  1  0  0  0  0
 18 35  1  0  0  0  0
 18 36  1  0  0  0  0
 20 37  1  0  0  0  0
 21 38  1  0  0  0  0
 21 39  1  0  0  0  0
 22 40  1  0  0  0  0
 22 41  1  0  0  0  0
 24 42  1  0  0  0  0
 24 43  1  0  0  0  0
 25 44  1  0  0  0  0
 25 45  1  0  0  0  0
 26 46  1  0  0  0  0
 26 47  1  0  0  0  0
 26 48  1  0  0  0  0
M  END
> <Name>
8f

> <IC50[nM]>
2.2

$$$$
8f
  -OEChem-05192314333D
 Structure written by MMmdl.
 48 51  0     1  0  0  0  0  0999 V2000
  -14.4976  -14.8078  -27.6041 C   0  0  0  0  0  0  0  0  0  0  0  0
  -15.0860  -15.6146  -26.6121 C   0  0  0  0  0  0  0  0  0  0  0  0
  -14.5776  -13.4189  -27.4910 C   0  0  0  0  0  0  0  0  0  0  0  0
  -15.7974  -15.0175  -25.5617 C   0  0  0  0  0  0  0  0  0  0  0  0
  -14.9497  -17.0161  -26.6693 N   0  0  0  0  0  0  0  0  0  0  0  0
  -15.2599  -12.8300  -26.4299 C   0  0  0  0  0  0  0  0  0  0  0  0
  -15.8868  -13.6238  -25.4651 C   0  0  0  0  0  0  0  0  0  0  0  0
  -16.4709  -15.9214  -24.5493 C   0  0  0  0  0  0  0  0  0  0  0  0
  -16.1516  -17.2326  -24.7414 N   0  0  0  0  0  0  0  0  0  0  0  0
  -17.2464  -15.5613  -23.6634 O   0  0  0  0  0  0  0  0  0  0  0  0
  -15.4317  -17.8110  -25.7710 C   0  0  0  0  0  0  0  0  0  0  0  0
  -15.2745  -19.2883  -25.8445 C   0  0  0  0  0  0  0  0  0  0  0  0
  -14.7650  -19.8714  -27.0158 C   0  0  0  0  0  0  0  0  0  0  0  0
  -14.6263  -21.2503  -27.1285 C   0  0  0  0  0  0  0  0  0  0  0  0
  -14.9818  -22.0879  -26.0683 C   0  0  0  0  0  0  0  0  0  0  0  0
  -15.4738  -21.5135  -24.8915 C   0  0  0  0  0  0  0  0  0  0  0  0
  -15.6247  -20.1316  -24.7809 C   0  0  0  0  0  0  0  0  0  0  0  0
  -13.7514  -15.3866  -28.7929 C   0  0  0  0  0  0  0  0  0  0  0  0
  -15.3111  -11.4823  -26.3542 F   0  0  0  0  0  0  0  0  0  0  0  0
  -14.9368  -23.6188  -26.2176 C   0  0  1  0  0  0  0  0  0  0  0  0
  -16.1502  -24.1096  -27.0129 C   0  0  0  0  0  0  0  0  0  0  0  0
  -16.1516  -25.6356  -27.1525 C   0  0  0  0  0  0  0  0  0  0  0  0
  -14.9512  -26.0113  -28.0249 N   0  0  1  0  0  0  0  0  0  0  0  0
  -13.6603  -25.6760  -27.2735 C   0  0  0  0  0  0  0  0  0  0  0  0
  -13.6303  -24.1771  -26.8303 C   0  0  0  0  0  0  0  0  0  0  0  0
  -14.9970  -27.5130  -28.4020 C   0  0  0  0  0  0  0  0  0  0  0  0
  -14.1051  -12.7943  -28.2347 H   0  0  0  0  0  0  0  0  0  0  0  0
  -14.8851  -15.0045  -24.9473 H   0  0  0  0  0  0  0  0  0  0  0  0
  -16.4342  -13.1668  -24.6539 H   0  0  0  0  0  0  0  0  0  0  0  0
  -14.4763  -19.2389  -27.8422 H   0  0  0  0  0  0  0  0  0  0  0  0
  -14.2408  -21.6771  -28.0426 H   0  0  0  0  0  0  0  0  0  0  0  0
  -15.7399  -22.1477  -24.0588 H   0  0  0  0  0  0  0  0  0  0  0  0
  -16.0149  -19.7073  -23.8676 H   0  0  0  0  0  0  0  0  0  0  0  0
  -13.3823  -14.5683  -29.4286 H   0  0  0  0  0  0  0  0  0  0  0  0
  -12.9007  -15.9853  -28.4355 H   0  0  0  0  0  0  0  0  0  0  0  0
  -14.4305  -16.0260  -29.3760 H   0  0  0  0  0  0  0  0  0  0  0  0
  -15.0215  -24.0425  -25.2060 H   0  0  0  0  0  0  0  0  0  0  0  0
  -17.0680  -23.7976  -26.4931 H   0  0  0  0  0  0  0  0  0  0  0  0
  -16.1258  -23.6591  -28.0161 H   0  0  0  0  0  0  0  0  0  0  0  0
  -16.0591  -26.1048  -26.1619 H   0  0  0  0  0  0  0  0  0  0  0  0
  -17.0843  -25.9695  -27.6307 H   0  0  0  0  0  0  0  0  0  0  0  0
  -13.5899  -26.3146  -26.3806 H   0  0  0  0  0  0  0  0  0  0  0  0
  -12.8016  -25.8714  -27.9326 H   0  0  0  0  0  0  0  0  0  0  0  0
  -13.3889  -23.5703  -27.7155 H   0  0  0  0  0  0  0  0  0  0  0  0
  -12.8334  -24.0649  -26.0804 H   0  0  0  0  0  0  0  0  0  0  0  0
  -14.1270  -27.7612  -29.0277 H   0  0  0  0  0  0  0  0  0  0  0  0
  -14.9753  -28.1218  -27.4861 H   0  0  0  0  0  0  0  0  0  0  0  0
  -15.9215  -27.7228  -28.9599 H   0  0  0  0  0  0  0  0  0  0  0  0
  1  2  1  0  0  0  0
  1  3  2  0  0  0  0
  1 18  1  0  0  0  0
  2  4  1  0  0  0  0
  2  5  2  0  0  0  0
  3  6  1  0  0  0  0
  4  7  1  0  0  0  0
  4  8  1  0  0  0  0
  5 11  1  0  0  0  0
  6  7  2  0  0  0  0
  6 19  1  0  0  0  0
  8  9  1  0  0  0  0
  8 10  2  0  0  0  0
  9 11  2  0  0  0  0
 11 12  1  0  0  0  0
 12 13  2  0  0  0  0
 12 17  1  0  0  0  0
 13 14  1  0  0  0  0
 14 15  2  0  0  0  0
 15 16  1  0  0  0  0
 15 20  1  0  0  0  0
 16 17  2  0  0  0  0
 20 21  1  0  0  0  0
 20 25  1  0  0  0  0
 21 22  1  0  0  0  0
 22 23  1  0  0  0  0
 23 24  1  0  0  0  0
 23 26  1  0  0  0  0
 24 25  1  0  0  0  0
  3 27  1  0  0  0  0
  4 28  1  0  0  0  0
  7 29  1  0  0  0  0
 13 30  1  0  0  0  0
 14 31  1  0  0  0  0
 16 32  1  0  0  0  0
 17 33  1  0  0  0  0
 18 34  1  0  0  0  0
 18 35  1  0  0  0  0
 18 36  1  0  0  0  0
 20 37  1  0  0  0  0
 21 38  1  0  0  0  0
 21 39  1  0  0  0  0
 22 40  1  0  0  0  0
 22 41  1  0  0  0  0
 24 42  1  0  0  0  0
 24 43  1  0  0  0  0
 25 44  1  0  0  0  0
 25 45  1  0  0  0  0
 26 46  1  0  0  0  0
 26 47  1  0  0  0  0
 26 48  1  0  0  0  0
M  END
> <Name>
8f

> <IC50[nM]>
2.2

$$$$
