5b
  -OEChem-05192314333D
 Structure written by MMmdl.
 37 39  0     0  0  0  0  0  0999 V2000
  -14.7375  -14.6323  -27.5622 C   0  0  0  0  0  0  0  0  0  0  0  0
  -15.2209  -15.5030  -26.5843 C   0  0  0  0  0  0  0  0  0  0  0  0
  -14.8052  -13.2521  -27.3541 C   0  0  0  0  0  0  0  0  0  0  0  0
  -15.8290  -14.9959  -25.4322 C   0  0  0  0  0  0  0  0  0  0  0  0
  -15.0637  -16.8857  -26.7646 N   0  0  0  0  0  0  0  0  0  0  0  0
  -15.3769  -12.7497  -26.1825 C   0  0  0  0  0  0  0  0  0  0  0  0
  -15.8955  -13.6216  -25.2220 C   0  0  0  0  0  0  0  0  0  0  0  0
  -16.3909  -15.9775  -24.4274 C   0  0  0  0  0  0  0  0  0  0  0  0
  -16.0862  -17.2568  -24.7503 N   0  0  0  0  0  0  0  0  0  0  0  0
  -17.0800  -15.7139  -23.4429 O   0  0  0  0  0  0  0  0  0  0  0  0
  -15.4531  -17.7422  -25.8760 C   0  0  0  0  0  0  0  0  0  0  0  0
  -15.2977  -19.2017  -26.0254 C   0  0  0  0  0  0  0  0  0  0  0  0
  -14.7218  -19.7203  -27.1921 C   0  0  0  0  0  0  0  0  0  0  0  0
  -14.5398  -21.0868  -27.3404 C   0  0  0  0  0  0  0  0  0  0  0  0
  -14.9310  -21.9625  -26.3286 C   0  0  0  0  0  0  0  0  0  0  0  0
  -15.5262  -21.4542  -25.1705 C   0  0  0  0  0  0  0  0  0  0  0  0
  -15.7136  -20.0876  -25.0202 C   0  0  0  0  0  0  0  0  0  0  0  0
  -14.6142  -23.4546  -26.4203 C   0  0  0  0  0  0  0  0  0  0  0  0
  -14.2412  -23.9050  -27.6919 O   0  0  0  0  0  0  0  0  0  0  0  0
  -15.8331  -24.3311  -26.1345 C   0  0  0  0  0  0  0  0  0  0  0  0
  -13.3967  -23.7268  -25.5432 C   0  0  0  0  0  0  0  0  0  0  0  0
  -16.4397  -13.1379  -24.0896 F   0  0  0  0  0  0  0  0  0  0  0  0
  -14.3132  -15.0233  -28.4752 H   0  0  0  0  0  0  0  0  0  0  0  0
  -14.4156  -12.5739  -28.0989 H   0  0  0  0  0  0  0  0  0  0  0  0
  -15.4181  -11.6830  -26.0187 H   0  0  0  0  0  0  0  0  0  0  0  0
  -16.3581  -17.9462  -24.0789 H   0  0  0  0  0  0  0  0  0  0  0  0
  -14.4171  -19.0504  -27.9825 H   0  0  0  0  0  0  0  0  0  0  0  0
  -14.0929  -21.4746  -28.2439 H   0  0  0  0  0  0  0  0  0  0  0  0
  -15.8419  -22.1288  -24.3884 H   0  0  0  0  0  0  0  0  0  0  0  0
  -16.1816  -19.7042  -24.1256 H   0  0  0  0  0  0  0  0  0  0  0  0
  -14.0634  -24.8376  -27.6585 H   0  0  0  0  0  0  0  0  0  0  0  0
  -15.5499  -25.3911  -26.2137 H   0  0  0  0  0  0  0  0  0  0  0  0
  -16.2025  -24.1253  -25.1190 H   0  0  0  0  0  0  0  0  0  0  0  0
  -16.6246  -24.1076  -26.8649 H   0  0  0  0  0  0  0  0  0  0  0  0
  -13.1432  -24.7962  -25.5885 H   0  0  0  0  0  0  0  0  0  0  0  0
  -12.5445  -23.1325  -25.9044 H   0  0  0  0  0  0  0  0  0  0  0  0
  -13.6240  -23.4477  -24.5038 H   0  0  0  0  0  0  0  0  0  0  0  0
  1  2  2  0  0  0  0
  1  3  1  0  0  0  0
  2  4  1  0  0  0  0
  2  5  1  0  0  0  0
  3  6  2  0  0  0  0
  4  7  2  0  0  0  0
  4  8  1  0  0  0  0
  5 11  2  0  0  0  0
  6  7  1  0  0  0  0
  7 22  1  0  0  0  0
  8  9  1  0  0  0  0
  8 10  2  0  0  0  0
  9 11  1  0  0  0  0
 11 12  1  0  0  0  0
 12 13  2  0  0  0  0
 12 17  1  0  0  0  0
 13 14  1  0  0  0  0
 14 15  2  0  0  0  0
 15 16  1  0  0  0  0
 15 18  1  0  0  0  0
 16 17  2  0  0  0  0
 18 19  1  0  0  0  0
 18 20  1  0  0  0  0
 18 21  1  0  0  0  0
  1 23  1  0  0  0  0
  3 24  1  0  0  0  0
  6 25  1  0  0  0  0
  9 26  1  0  0  0  0
 13 27  1  0  0  0  0
 14 28  1  0  0  0  0
 16 29  1  0  0  0  0
 17 30  1  0  0  0  0
 19 31  1  0  0  0  0
 20 32  1  0  0  0  0
 20 33  1  0  0  0  0
 20 34  1  0  0  0  0
 21 35  1  0  0  0  0
 21 36  1  0  0  0  0
 21 37  1  0  0  0  0
M  END
> <Name>
5b

> <IC50[nM]>
21

$$$$
5b
  -OEChem-05192314333D
 Structure written by MMmdl.
 37 39  0     0  0  0  0  0  0999 V2000
  -14.7375  -14.6323  -27.5622 C   0  0  0  0  0  0  0  0  0  0  0  0
  -15.2209  -15.5030  -26.5843 C   0  0  0  0  0  0  0  0  0  0  0  0
  -14.8052  -13.2521  -27.3541 C   0  0  0  0  0  0  0  0  0  0  0  0
  -15.8290  -14.9959  -25.4322 C   0  0  0  0  0  0  0  0  0  0  0  0
  -15.0637  -16.8857  -26.7646 N   0  0  0  0  0  0  0  0  0  0  0  0
  -15.3769  -12.7497  -26.1825 C   0  0  0  0  0  0  0  0  0  0  0  0
  -15.8955  -13.6216  -25.2220 C   0  0  0  0  0  0  0  0  0  0  0  0
  -16.3909  -15.9775  -24.4274 C   0  0  0  0  0  0  0  0  0  0  0  0
  -16.0862  -17.2568  -24.7503 N   0  0  0  0  0  0  0  0  0  0  0  0
  -17.0800  -15.7139  -23.4429 O   0  0  0  0  0  0  0  0  0  0  0  0
  -15.4531  -17.7422  -25.8760 C   0  0  0  0  0  0  0  0  0  0  0  0
  -15.2977  -19.2017  -26.0254 C   0  0  0  0  0  0  0  0  0  0  0  0
  -14.7218  -19.7203  -27.1921 C   0  0  0  0  0  0  0  0  0  0  0  0
  -14.5398  -21.0868  -27.3404 C   0  0  0  0  0  0  0  0  0  0  0  0
  -14.9310  -21.9625  -26.3286 C   0  0  0  0  0  0  0  0  0  0  0  0
  -15.5262  -21.4542  -25.1705 C   0  0  0  0  0  0  0  0  0  0  0  0
  -15.7136  -20.0876  -25.0202 C   0  0  0  0  0  0  0  0  0  0  0  0
  -14.6142  -23.4546  -26.4203 C   0  0  0  0  0  0  0  0  0  0  0  0
  -14.2412  -23.9050  -27.6919 O   0  0  0  0  0  0  0  0  0  0  0  0
  -15.8331  -24.3311  -26.1345 C   0  0  0  0  0  0  0  0  0  0  0  0
  -13.3967  -23.7268  -25.5432 C   0  0  0  0  0  0  0  0  0  0  0  0
  -16.4397  -13.1379  -24.0896 F   0  0  0  0  0  0  0  0  0  0  0  0
  -14.3132  -15.0233  -28.4752 H   0  0  0  0  0  0  0  0  0  0  0  0
  -14.4156  -12.5739  -28.0989 H   0  0  0  0  0  0  0  0  0  0  0  0
  -14.6377  -17.2195  -27.6055 H   0  0  0  0  0  0  0  0  0  0  0  0
  -15.4181  -11.6830  -26.0187 H   0  0  0  0  0  0  0  0  0  0  0  0
  -14.4171  -19.0504  -27.9825 H   0  0  0  0  0  0  0  0  0  0  0  0
  -14.0929  -21.4746  -28.2439 H   0  0  0  0  0  0  0  0  0  0  0  0
  -15.8419  -22.1288  -24.3884 H   0  0  0  0  0  0  0  0  0  0  0  0
  -16.1816  -19.7042  -24.1256 H   0  0  0  0  0  0  0  0  0  0  0  0
  -14.0634  -24.8376  -27.6585 H   0  0  0  0  0  0  0  0  0  0  0  0
  -15.5499  -25.3911  -26.2137 H   0  0  0  0  0  0  0  0  0  0  0  0
  -16.2025  -24.1253  -25.1190 H   0  0  0  0  0  0  0  0  0  0  0  0
  -16.6246  -24.1076  -26.8649 H   0  0  0  0  0  0  0  0  0  0  0  0
  -13.1432  -24.7962  -25.5885 H   0  0  0  0  0  0  0  0  0  0  0  0
  -12.5445  -23.1325  -25.9044 H   0  0  0  0  0  0  0  0  0  0  0  0
  -13.6240  -23.4477  -24.5038 H   0  0  0  0  0  0  0  0  0  0  0  0
  1  2  2  0  0  0  0
  1  3  1  0  0  0  0
  2  4  1  0  0  0  0
  2  5  1  0  0  0  0
  3  6  2  0  0  0  0
  4  7  2  0  0  0  0
  4  8  1  0  0  0  0
  5 11  1  0  0  0  0
  6  7  1  0  0  0  0
  7 22  1  0  0  0  0
  8  9  1  0  0  0  0
  8 10  2  0  0  0  0
  9 11  2  0  0  0  0
 11 12  1  0  0  0  0
 12 13  2  0  0  0  0
 12 17  1  0  0  0  0
 13 14  1  0  0  0  0
 14 15  2  0  0  0  0
 15 16  1  0  0  0  0
 15 18  1  0  0  0  0
 16 17  2  0  0  0  0
 18 19  1  0  0  0  0
 18 20  1  0  0  0  0
 18 21  1  0  0  0  0
  1 23  1  0  0  0  0
  3 24  1  0  0  0  0
  5 25  1  0  0  0  0
  6 26  1  0  0  0  0
 13 27  1  0  0  0  0
 14 28  1  0  0  0  0
 16 29  1  0  0  0  0
 17 30  1  0  0  0  0
 19 31  1  0  0  0  0
 20 32  1  0  0  0  0
 20 33  1  0  0  0  0
 20 34  1  0  0  0  0
 21 35  1  0  0  0  0
 21 36  1  0  0  0  0
 21 37  1  0  0  0  0
M  END
> <Name>
5b

> <IC50[nM]>
21

$$$$
5b
  -OEChem-05192314333D
 Structure written by MMmdl.
 37 39  0     0  0  0  0  0  0999 V2000
  -14.7375  -14.6323  -27.5622 C   0  0  0  0  0  0  0  0  0  0  0  0
  -15.2209  -15.5030  -26.5843 C   0  0  0  0  0  0  0  0  0  0  0  0
  -14.8052  -13.2521  -27.3541 C   0  0  0  0  0  0  0  0  0  0  0  0
  -15.8290  -14.9959  -25.4322 C   0  0  0  0  0  0  0  0  0  0  0  0
  -15.0637  -16.8857  -26.7646 N   0  0  0  0  0  0  0  0  0  0  0  0
  -15.3769  -12.7497  -26.1825 C   0  0  0  0  0  0  0  0  0  0  0  0
  -15.8955  -13.6216  -25.2220 C   0  0  0  0  0  0  0  0  0  0  0  0
  -16.3909  -15.9775  -24.4274 C   0  0  0  0  0  0  0  0  0  0  0  0
  -16.0862  -17.2568  -24.7503 N   0  0  0  0  0  0  0  0  0  0  0  0
  -17.0800  -15.7139  -23.4429 O   0  0  0  0  0  0  0  0  0  0  0  0
  -15.4531  -17.7422  -25.8760 C   0  0  0  0  0  0  0  0  0  0  0  0
  -15.2977  -19.2017  -26.0254 C   0  0  0  0  0  0  0  0  0  0  0  0
  -14.7218  -19.7203  -27.1921 C   0  0  0  0  0  0  0  0  0  0  0  0
  -14.5398  -21.0868  -27.3404 C   0  0  0  0  0  0  0  0  0  0  0  0
  -14.9310  -21.9625  -26.3286 C   0  0  0  0  0  0  0  0  0  0  0  0
  -15.5262  -21.4542  -25.1705 C   0  0  0  0  0  0  0  0  0  0  0  0
  -15.7136  -20.0876  -25.0202 C   0  0  0  0  0  0  0  0  0  0  0  0
  -14.6142  -23.4546  -26.4203 C   0  0  0  0  0  0  0  0  0  0  0  0
  -14.2412  -23.9050  -27.6919 O   0  0  0  0  0  0  0  0  0  0  0  0
  -15.8331  -24.3311  -26.1345 C   0  0  0  0  0  0  0  0  0  0  0  0
  -13.3967  -23.7268  -25.5432 C   0  0  0  0  0  0  0  0  0  0  0  0
  -16.4397  -13.1379  -24.0896 F   0  0  0  0  0  0  0  0  0  0  0  0
  -14.3132  -15.0233  -28.4752 H   0  0  0  0  0  0  0  0  0  0  0  0
  -14.4156  -12.5739  -28.0989 H   0  0  0  0  0  0  0  0  0  0  0  0
  -15.4181  -11.6830  -26.0187 H   0  0  0  0  0  0  0  0  0  0  0  0
  -17.3266  -16.5193  -23.0036 H   0  0  0  0  0  0  0  0  0  0  0  0
  -14.4171  -19.0504  -27.9825 H   0  0  0  0  0  0  0  0  0  0  0  0
  -14.0929  -21.4746  -28.2439 H   0  0  0  0  0  0  0  0  0  0  0  0
  -15.8419  -22.1288  -24.3884 H   0  0  0  0  0  0  0  0  0  0  0  0
  -16.1816  -19.7042  -24.1256 H   0  0  0  0  0  0  0  0  0  0  0  0
  -14.0634  -24.8376  -27.6585 H   0  0  0  0  0  0  0  0  0  0  0  0
  -15.5499  -25.3911  -26.2137 H   0  0  0  0  0  0  0  0  0  0  0  0
  -16.2025  -24.1253  -25.1190 H   0  0  0  0  0  0  0  0  0  0  0  0
  -16.6246  -24.1076  -26.8649 H   0  0  0  0  0  0  0  0  0  0  0  0
  -13.1432  -24.7962  -25.5885 H   0  0  0  0  0  0  0  0  0  0  0  0
  -12.5445  -23.1325  -25.9044 H   0  0  0  0  0  0  0  0  0  0  0  0
  -13.6240  -23.4477  -24.5038 H   0  0  0  0  0  0  0  0  0  0  0  0
  1  2  2  0  0  0  0
  1  3  1  0  0  0  0
  2  4  1  0  0  0  0
  2  5  1  0  0  0  0
  3  6  2  0  0  0  0
  4  7  2  0  0  0  0
  4  8  1  0  0  0  0
  5 11  2  0  0  0  0
  6  7  1  0  0  0  0
  7 22  1  0  0  0  0
  8  9  2  0  0  0  0
  8 10  1  0  0  0  0
  9 11  1  0  0  0  0
 11 12  1  0  0  0  0
 12 13  2  0  0  0  0
 12 17  1  0  0  0  0
 13 14  1  0  0  0  0
 14 15  2  0  0  0  0
 15 16  1  0  0  0  0
 15 18  1  0  0  0  0
 16 17  2  0  0  0  0
 18 19  1  0  0  0  0
 18 20  1  0  0  0  0
 18 21  1  0  0  0  0
  1 23  1  0  0  0  0
  3 24  1  0  0  0  0
  6 25  1  0  0  0  0
 10 26  1  0  0  0  0
 13 27  1  0  0  0  0
 14 28  1  0  0  0  0
 16 29  1  0  0  0  0
 17 30  1  0  0  0  0
 19 31  1  0  0  0  0
 20 32  1  0  0  0  0
 20 33  1  0  0  0  0
 20 34  1  0  0  0  0
 21 35  1  0  0  0  0
 21 36  1  0  0  0  0
 21 37  1  0  0  0  0
M  END
> <Name>
5b

> <IC50[nM]>
21

$$$$
5b
  -OEChem-05192314333D
 Structure written by MMmdl.
 37 39  0     1  0  0  0  0  0999 V2000
  -14.7375  -14.6323  -27.5622 C   0  0  0  0  0  0  0  0  0  0  0  0
  -15.2209  -15.5030  -26.5843 C   0  0  0  0  0  0  0  0  0  0  0  0
  -14.8052  -13.2521  -27.3541 C   0  0  0  0  0  0  0  0  0  0  0  0
  -15.8290  -14.9959  -25.4322 C   0  0  3  0  0  0  0  0  0  0  0  0
  -15.0637  -16.8857  -26.7646 N   0  0  0  0  0  0  0  0  0  0  0  0
  -15.3769  -12.7497  -26.1825 C   0  0  0  0  0  0  0  0  0  0  0  0
  -15.8955  -13.6216  -25.2220 C   0  0  0  0  0  0  0  0  0  0  0  0
  -16.3909  -15.9775  -24.4274 C   0  0  0  0  0  0  0  0  0  0  0  0
  -16.0862  -17.2568  -24.7503 N   0  0  0  0  0  0  0  0  0  0  0  0
  -17.0800  -15.7139  -23.4429 O   0  0  0  0  0  0  0  0  0  0  0  0
  -15.4531  -17.7422  -25.8760 C   0  0  0  0  0  0  0  0  0  0  0  0
  -15.2977  -19.2017  -26.0254 C   0  0  0  0  0  0  0  0  0  0  0  0
  -14.7218  -19.7203  -27.1921 C   0  0  0  0  0  0  0  0  0  0  0  0
  -14.5398  -21.0868  -27.3404 C   0  0  0  0  0  0  0  0  0  0  0  0
  -14.9310  -21.9625  -26.3286 C   0  0  0  0  0  0  0  0  0  0  0  0
  -15.5262  -21.4542  -25.1705 C   0  0  0  0  0  0  0  0  0  0  0  0
  -15.7136  -20.0876  -25.0202 C   0  0  0  0  0  0  0  0  0  0  0  0
  -14.6142  -23.4546  -26.4203 C   0  0  0  0  0  0  0  0  0  0  0  0
  -14.2412  -23.9050  -27.6919 O   0  0  0  0  0  0  0  0  0  0  0  0
  -15.8331  -24.3311  -26.1345 C   0  0  0  0  0  0  0  0  0  0  0  0
  -13.3967  -23.7268  -25.5432 C   0  0  0  0  0  0  0  0  0  0  0  0
  -16.4397  -13.1379  -24.0896 F   0  0  0  0  0  0  0  0  0  0  0  0
  -14.3132  -15.0233  -28.4752 H   0  0  0  0  0  0  0  0  0  0  0  0
  -14.4156  -12.5739  -28.0989 H   0  0  0  0  0  0  0  0  0  0  0  0
  -16.7982  -14.9673  -25.9516 H   0  0  0  0  0  0  0  0  0  0  0  0
  -15.4181  -11.6830  -26.0187 H   0  0  0  0  0  0  0  0  0  0  0  0
  -14.4171  -19.0504  -27.9825 H   0  0  0  0  0  0  0  0  0  0  0  0
  -14.0929  -21.4746  -28.2439 H   0  0  0  0  0  0  0  0  0  0  0  0
  -15.8419  -22.1288  -24.3884 H   0  0  0  0  0  0  0  0  0  0  0  0
  -16.1816  -19.7042  -24.1256 H   0  0  0  0  0  0  0  0  0  0  0  0
  -14.0634  -24.8376  -27.6585 H   0  0  0  0  0  0  0  0  0  0  0  0
  -15.5499  -25.3911  -26.2137 H   0  0  0  0  0  0  0  0  0  0  0  0
  -16.2025  -24.1253  -25.1190 H   0  0  0  0  0  0  0  0  0  0  0  0
  -16.6246  -24.1076  -26.8649 H   0  0  0  0  0  0  0  0  0  0  0  0
  -13.1432  -24.7962  -25.5885 H   0  0  0  0  0  0  0  0  0  0  0  0
  -12.5445  -23.1325  -25.9044 H   0  0  0  0  0  0  0  0  0  0  0  0
  -13.6240  -23.4477  -24.5038 H   0  0  0  0  0  0  0  0  0  0  0  0
  1  2  1  0  0  0  0
  1  3  2  0  0  0  0
  2  4  1  0  0  0  0
  2  5  2  0  0  0  0
  3  6  1  0  0  0  0
  4  7  1  0  0  0  0
  4  8  1  0  0  0  0
  5 11  1  0  0  0  0
  6  7  2  0  0  0  0
  7 22  1  0  0  0  0
  8  9  1  0  0  0  0
  8 10  2  0  0  0  0
  9 11  2  0  0  0  0
 11 12  1  0  0  0  0
 12 13  2  0  0  0  0
 12 17  1  0  0  0  0
 13 14  1  0  0  0  0
 14 15  2  0  0  0  0
 15 16  1  0  0  0  0
 15 18  1  0  0  0  0
 16 17  2  0  0  0  0
 18 19  1  0  0  0  0
 18 20  1  0  0  0  0
 18 21  1  0  0  0  0
  1 23  1  0  0  0  0
  3 24  1  0  0  0  0
  4 25  1  0  0  0  0
  6 26  1  0  0  0  0
 13 27  1  0  0  0  0
 14 28  1  0  0  0  0
 16 29  1  0  0  0  0
 17 30  1  0  0  0  0
 19 31  1  0  0  0  0
 20 32  1  0  0  0  0
 20 33  1  0  0  0  0
 20 34  1  0  0  0  0
 21 35  1  0  0  0  0
 21 36  1  0  0  0  0
 21 37  1  0  0  0  0
M  END
> <Name>
5b

> <IC50[nM]>
21

$$$$
5b
  -OEChem-05192314333D
 Structure written by MMmdl.
 37 39  0     0  0  0  0  0  0999 V2000
  -14.7375  -14.6323  -27.5622 C   0  0  0  0  0  0  0  0  0  0  0  0
  -15.2209  -15.5030  -26.5843 C   0  0  0  0  0  0  0  0  0  0  0  0
  -14.8052  -13.2521  -27.3541 C   0  0  0  0  0  0  0  0  0  0  0  0
  -15.8290  -14.9959  -25.4322 C   0  0  0  0  0  0  0  0  0  0  0  0
  -15.0637  -16.8857  -26.7646 N   0  0  0  0  0  0  0  0  0  0  0  0
  -15.3769  -12.7497  -26.1825 C   0  0  0  0  0  0  0  0  0  0  0  0
  -15.8955  -13.6216  -25.2220 C   0  0  0  0  0  0  0  0  0  0  0  0
  -16.3909  -15.9775  -24.4274 C   0  0  0  0  0  0  0  0  0  0  0  0
  -16.0862  -17.2568  -24.7503 N   0  0  0  0  0  0  0  0  0  0  0  0
  -17.0800  -15.7139  -23.4429 O   0  0  0  0  0  0  0  0  0  0  0  0
  -15.4531  -17.7422  -25.8760 C   0  0  0  0  0  0  0  0  0  0  0  0
  -15.2977  -19.2017  -26.0254 C   0  0  0  0  0  0  0  0  0  0  0  0
  -14.7218  -19.7203  -27.1921 C   0  0  0  0  0  0  0  0  0  0  0  0
  -14.5398  -21.0868  -27.3404 C   0  0  0  0  0  0  0  0  0  0  0  0
  -14.9310  -21.9625  -26.3286 C   0  0  0  0  0  0  0  0  0  0  0  0
  -15.5262  -21.4542  -25.1705 C   0  0  0  0  0  0  0  0  0  0  0  0
  -15.7136  -20.0876  -25.0202 C   0  0  0  0  0  0  0  0  0  0  0  0
  -14.6142  -23.4546  -26.4203 C   0  0  0  0  0  0  0  0  0  0  0  0
  -14.2412  -23.9050  -27.6919 O   0  0  0  0  0  0  0  0  0  0  0  0
  -15.8331  -24.3311  -26.1345 C   0  0  0  0  0  0  0  0  0  0  0  0
  -13.3967  -23.7268  -25.5432 C   0  0  0  0  0  0  0  0  0  0  0  0
  -16.4397  -13.1379  -24.0896 F   0  0  0  0  0  0  0  0  0  0  0  0
  -13.6767  -14.8805  -27.7142 H   0  0  0  0  0  0  0  0  0  0  0  0
  -15.2993  -14.8440  -28.4839 H   0  0  0  0  0  0  0  0  0  0  0  0
  -14.4156  -12.5739  -28.0989 H   0  0  0  0  0  0  0  0  0  0  0  0
  -15.4181  -11.6830  -26.0187 H   0  0  0  0  0  0  0  0  0  0  0  0
  -14.4171  -19.0504  -27.9825 H   0  0  0  0  0  0  0  0  0  0  0  0
  -14.0929  -21.4746  -28.2439 H   0  0  0  0  0  0  0  0  0  0  0  0
  -15.8419  -22.1288  -24.3884 H   0  0  0  0  0  0  0  0  0  0  0  0
  -16.1816  -19.7042  -24.1256 H   0  0  0  0  0  0  0  0  0  0  0  0
  -14.0634  -24.8376  -27.6585 H   0  0  0  0  0  0  0  0  0  0  0  0
  -15.5499  -25.3911  -26.2137 H   0  0  0  0  0  0  0  0  0  0  0  0
  -16.2025  -24.1253  -25.1190 H   0  0  0  0  0  0  0  0  0  0  0  0
  -16.6246  -24.1076  -26.8649 H   0  0  0  0  0  0  0  0  0  0  0  0
  -13.1432  -24.7962  -25.5885 H   0  0  0  0  0  0  0  0  0  0  0  0
  -12.5445  -23.1325  -25.9044 H   0  0  0  0  0  0  0  0  0  0  0  0
  -13.6240  -23.4477  -24.5038 H   0  0  0  0  0  0  0  0  0  0  0  0
  1  2  1  0  0  0  0
  1  3  1  0  0  0  0
  2  4  1  0  0  0  0
  2  5  2  0  0  0  0
  3  6  2  0  0  0  0
  4  7  2  0  0  0  0
  4  8  1  0  0  0  0
  5 11  1  0  0  0  0
  6  7  1  0  0  0  0
  7 22  1  0  0  0  0
  8  9  1  0  0  0  0
  8 10  2  0  0  0  0
  9 11  2  0  0  0  0
 11 12  1  0  0  0  0
 12 13  2  0  0  0  0
 12 17  1  0  0  0  0
 13 14  1  0  0  0  0
 14 15  2  0  0  0  0
 15 16  1  0  0  0  0
 15 18  1  0  0  0  0
 16 17  2  0  0  0  0
 18 19  1  0  0  0  0
 18 20  1  0  0  0  0
 18 21  1  0  0  0  0
  1 23  1  0  0  0  0
  1 24  1  0  0  0  0
  3 25  1  0  0  0  0
  6 26  1  0  0  0  0
 13 27  1  0  0  0  0
 14 28  1  0  0  0  0
 16 29  1  0  0  0  0
 17 30  1  0  0  0  0
 19 31  1  0  0  0  0
 20 32  1  0  0  0  0
 20 33  1  0  0  0  0
 20 34  1  0  0  0  0
 21 35  1  0  0  0  0
 21 36  1  0  0  0  0
 21 37  1  0  0  0  0
M  END
> <Name>
5b

> <IC50[nM]>
21

$$$$
5b
  -OEChem-05192314333D
 Structure written by MMmdl.
 37 39  0     0  0  0  0  0  0999 V2000
  -14.7375  -14.6323  -27.5622 C   0  0  0  0  0  0  0  0  0  0  0  0
  -15.2209  -15.5030  -26.5843 C   0  0  0  0  0  0  0  0  0  0  0  0
  -14.8052  -13.2521  -27.3541 C   0  0  0  0  0  0  0  0  0  0  0  0
  -15.8290  -14.9959  -25.4322 C   0  0  0  0  0  0  0  0  0  0  0  0
  -15.0637  -16.8857  -26.7646 N   0  0  0  0  0  0  0  0  0  0  0  0
  -15.3769  -12.7497  -26.1825 C   0  0  0  0  0  0  0  0  0  0  0  0
  -15.8955  -13.6216  -25.2220 C   0  0  0  0  0  0  0  0  0  0  0  0
  -16.3909  -15.9775  -24.4274 C   0  0  0  0  0  0  0  0  0  0  0  0
  -16.0862  -17.2568  -24.7503 N   0  0  0  0  0  0  0  0  0  0  0  0
  -17.0800  -15.7139  -23.4429 O   0  0  0  0  0  0  0  0  0  0  0  0
  -15.4531  -17.7422  -25.8760 C   0  0  0  0  0  0  0  0  0  0  0  0
  -15.2977  -19.2017  -26.0254 C   0  0  0  0  0  0  0  0  0  0  0  0
  -14.7218  -19.7203  -27.1921 C   0  0  0  0  0  0  0  0  0  0  0  0
  -14.5398  -21.0868  -27.3404 C   0  0  0  0  0  0  0  0  0  0  0  0
  -14.9310  -21.9625  -26.3286 C   0  0  0  0  0  0  0  0  0  0  0  0
  -15.5262  -21.4542  -25.1705 C   0  0  0  0  0  0  0  0  0  0  0  0
  -15.7136  -20.0876  -25.0202 C   0  0  0  0  0  0  0  0  0  0  0  0
  -14.6142  -23.4546  -26.4203 C   0  0  0  0  0  0  0  0  0  0  0  0
  -14.2412  -23.9050  -27.6919 O   0  0  0  0  0  0  0  0  0  0  0  0
  -15.8331  -24.3311  -26.1345 C   0  0  0  0  0  0  0  0  0  0  0  0
  -13.3967  -23.7268  -25.5432 C   0  0  0  0  0  0  0  0  0  0  0  0
  -16.4397  -13.1379  -24.0896 F   0  0  0  0  0  0  0  0  0  0  0  0
  -14.3132  -15.0233  -28.4752 H   0  0  0  0  0  0  0  0  0  0  0  0
  -14.4156  -12.5739  -28.0989 H   0  0  0  0  0  0  0  0  0  0  0  0
  -14.5998  -12.1536  -25.6818 H   0  0  0  0  0  0  0  0  0  0  0  0
  -16.2025  -12.0913  -26.4906 H   0  0  0  0  0  0  0  0  0  0  0  0
  -14.4171  -19.0504  -27.9825 H   0  0  0  0  0  0  0  0  0  0  0  0
  -14.0929  -21.4746  -28.2439 H   0  0  0  0  0  0  0  0  0  0  0  0
  -15.8419  -22.1288  -24.3884 H   0  0  0  0  0  0  0  0  0  0  0  0
  -16.1816  -19.7042  -24.1256 H   0  0  0  0  0  0  0  0  0  0  0  0
  -14.0634  -24.8376  -27.6585 H   0  0  0  0  0  0  0  0  0  0  0  0
  -15.5499  -25.3911  -26.2137 H   0  0  0  0  0  0  0  0  0  0  0  0
  -16.2025  -24.1253  -25.1190 H   0  0  0  0  0  0  0  0  0  0  0  0
  -16.6246  -24.1076  -26.8649 H   0  0  0  0  0  0  0  0  0  0  0  0
  -13.1432  -24.7962  -25.5885 H   0  0  0  0  0  0  0  0  0  0  0  0
  -12.5445  -23.1325  -25.9044 H   0  0  0  0  0  0  0  0  0  0  0  0
  -13.6240  -23.4477  -24.5038 H   0  0  0  0  0  0  0  0  0  0  0  0
  1  2  1  0  0  0  0
  1  3  2  0  0  0  0
  2  4  1  0  0  0  0
  2  5  2  0  0  0  0
  3  6  1  0  0  0  0
  4  7  2  0  0  0  0
  4  8  1  0  0  0  0
  5 11  1  0  0  0  0
  6  7  1  0  0  0  0
  7 22  1  0  0  0  0
  8  9  1  0  0  0  0
  8 10  2  0  0  0  0
  9 11  2  0  0  0  0
 11 12  1  0  0  0  0
 12 13  2  0  0  0  0
 12 17  1  0  0  0  0
 13 14  1  0  0  0  0
 14 15  2  0  0  0  0
 15 16  1  0  0  0  0
 15 18  1  0  0  0  0
 16 17  2  0  0  0  0
 18 19  1  0  0  0  0
 18 20  1  0  0  0  0
 18 21  1  0  0  0  0
  1 23  1  0  0  0  0
  3 24  1  0  0  0  0
  6 25  1  0  0  0  0
  6 26  1  0  0  0  0
 13 27  1  0  0  0  0
 14 28  1  0  0  0  0
 16 29  1  0  0  0  0
 17 30  1  0  0  0  0
 19 31  1  0  0  0  0
 20 32  1  0  0  0  0
 20 33  1  0  0  0  0
 20 34  1  0  0  0  0
 21 35  1  0  0  0  0
 21 36  1  0  0  0  0
 21 37  1  0  0  0  0
M  END
> <Name>
5b

> <IC50[nM]>
21

$$$$
