5d
  -OEChem-05192314333D
 Structure written by MMmdl.
 37 39  0     0  0  0  0  0  0999 V2000
  -14.3086  -14.7921  -27.4784 C   0  0  0  0  0  0  0  0  0  0  0  0
  -15.0167  -15.5896  -26.5804 C   0  0  0  0  0  0  0  0  0  0  0  0
  -14.4209  -13.4086  -27.3834 C   0  0  0  0  0  0  0  0  0  0  0  0
  -15.8598  -15.0204  -25.6172 C   0  0  0  0  0  0  0  0  0  0  0  0
  -14.8572  -16.9685  -26.6643 N   0  0  0  0  0  0  0  0  0  0  0  0
  -15.2467  -12.8486  -26.4112 C   0  0  0  0  0  0  0  0  0  0  0  0
  -15.9778  -13.6371  -25.5261 C   0  0  0  0  0  0  0  0  0  0  0  0
  -15.3497  -11.5222  -26.3368 F   0  0  0  0  0  0  0  0  0  0  0  0
  -16.6344  -15.9439  -24.7010 C   0  0  0  0  0  0  0  0  0  0  0  0
  -16.3378  -17.2491  -24.9375 N   0  0  0  0  0  0  0  0  0  0  0  0
  -17.4603  -15.6053  -23.8520 O   0  0  0  0  0  0  0  0  0  0  0  0
  -15.4812  -17.7825  -25.8835 C   0  0  0  0  0  0  0  0  0  0  0  0
  -15.3281  -19.2368  -26.0128 C   0  0  0  0  0  0  0  0  0  0  0  0
  -15.7173  -20.1149  -24.9948 C   0  0  0  0  0  0  0  0  0  0  0  0
  -15.5045  -21.4792  -25.1435 C   0  0  0  0  0  0  0  0  0  0  0  0
  -14.9173  -21.9782  -26.3122 C   0  0  0  0  0  0  0  0  0  0  0  0
  -14.5597  -21.1078  -27.3352 C   0  0  0  0  0  0  0  0  0  0  0  0
  -14.7654  -19.7512  -27.1884 C   0  0  0  0  0  0  0  0  0  0  0  0
  -14.5723  -23.4575  -26.4180 C   0  0  0  0  0  0  0  0  0  0  0  0
  -14.2296  -23.8957  -27.7059 O   0  0  0  0  0  0  0  0  0  0  0  0
  -15.7738  -24.3383  -26.1013 C   0  0  0  0  0  0  0  0  0  0  0  0
  -13.3357  -23.7020  -25.5598 C   0  0  0  0  0  0  0  0  0  0  0  0
  -13.6829  -15.2411  -28.2356 H   0  0  0  0  0  0  0  0  0  0  0  0
  -13.8705  -12.7718  -28.0601 H   0  0  0  0  0  0  0  0  0  0  0  0
  -16.6216  -13.1852  -24.7860 H   0  0  0  0  0  0  0  0  0  0  0  0
  -16.8006  -17.9121  -24.3491 H   0  0  0  0  0  0  0  0  0  0  0  0
  -16.1812  -19.7331  -24.0973 H   0  0  0  0  0  0  0  0  0  0  0  0
  -15.7931  -22.1578  -24.3545 H   0  0  0  0  0  0  0  0  0  0  0  0
  -14.1213  -21.4928  -28.2440 H   0  0  0  0  0  0  0  0  0  0  0  0
  -14.4899  -19.0792  -27.9877 H   0  0  0  0  0  0  0  0  0  0  0  0
  -14.0303  -24.8243  -27.6824 H   0  0  0  0  0  0  0  0  0  0  0  0
  -15.4863  -25.3965  -26.1880 H   0  0  0  0  0  0  0  0  0  0  0  0
  -16.1176  -24.1346  -25.0765 H   0  0  0  0  0  0  0  0  0  0  0  0
  -16.5856  -24.1197  -26.8106 H   0  0  0  0  0  0  0  0  0  0  0  0
  -13.0564  -24.7647  -25.6125 H   0  0  0  0  0  0  0  0  0  0  0  0
  -12.5039  -23.0856  -25.9314 H   0  0  0  0  0  0  0  0  0  0  0  0
  -13.5545  -23.4318  -24.5162 H   0  0  0  0  0  0  0  0  0  0  0  0
  1  2  2  0  0  0  0
  1  3  1  0  0  0  0
  2  4  1  0  0  0  0
  2  5  1  0  0  0  0
  3  6  2  0  0  0  0
  4  7  2  0  0  0  0
  4  9  1  0  0  0  0
  5 12  2  0  0  0  0
  6  7  1  0  0  0  0
  6  8  1  0  0  0  0
  9 10  1  0  0  0  0
  9 11  2  0  0  0  0
 10 12  1  0  0  0  0
 12 13  1  0  0  0  0
 13 14  2  0  0  0  0
 13 18  1  0  0  0  0
 14 15  1  0  0  0  0
 15 16  2  0  0  0  0
 16 17  1  0  0  0  0
 16 19  1  0  0  0  0
 17 18  2  0  0  0  0
 19 20  1  0  0  0  0
 19 21  1  0  0  0  0
 19 22  1  0  0  0  0
  1 23  1  0  0  0  0
  3 24  1  0  0  0  0
  7 25  1  0  0  0  0
 10 26  1  0  0  0  0
 14 27  1  0  0  0  0
 15 28  1  0  0  0  0
 17 29  1  0  0  0  0
 18 30  1  0  0  0  0
 20 31  1  0  0  0  0
 21 32  1  0  0  0  0
 21 33  1  0  0  0  0
 21 34  1  0  0  0  0
 22 35  1  0  0  0  0
 22 36  1  0  0  0  0
 22 37  1  0  0  0  0
M  END
> <Name>
5d

> <IC50[nM]>
10.5

$$$$
5d
  -OEChem-05192314333D
 Structure written by MMmdl.
 37 39  0     0  0  0  0  0  0999 V2000
  -14.3086  -14.7921  -27.4784 C   0  0  0  0  0  0  0  0  0  0  0  0
  -15.0167  -15.5896  -26.5804 C   0  0  0  0  0  0  0  0  0  0  0  0
  -14.4209  -13.4086  -27.3834 C   0  0  0  0  0  0  0  0  0  0  0  0
  -15.8598  -15.0204  -25.6172 C   0  0  0  0  0  0  0  0  0  0  0  0
  -14.8572  -16.9685  -26.6643 N   0  0  0  0  0  0  0  0  0  0  0  0
  -15.2467  -12.8486  -26.4112 C   0  0  0  0  0  0  0  0  0  0  0  0
  -15.9778  -13.6371  -25.5261 C   0  0  0  0  0  0  0  0  0  0  0  0
  -15.3497  -11.5222  -26.3368 F   0  0  0  0  0  0  0  0  0  0  0  0
  -16.6344  -15.9439  -24.7010 C   0  0  0  0  0  0  0  0  0  0  0  0
  -16.3378  -17.2491  -24.9375 N   0  0  0  0  0  0  0  0  0  0  0  0
  -17.4603  -15.6053  -23.8520 O   0  0  0  0  0  0  0  0  0  0  0  0
  -15.4812  -17.7825  -25.8835 C   0  0  0  0  0  0  0  0  0  0  0  0
  -15.3281  -19.2368  -26.0128 C   0  0  0  0  0  0  0  0  0  0  0  0
  -15.7173  -20.1149  -24.9948 C   0  0  0  0  0  0  0  0  0  0  0  0
  -15.5045  -21.4792  -25.1435 C   0  0  0  0  0  0  0  0  0  0  0  0
  -14.9173  -21.9782  -26.3122 C   0  0  0  0  0  0  0  0  0  0  0  0
  -14.5597  -21.1078  -27.3352 C   0  0  0  0  0  0  0  0  0  0  0  0
  -14.7654  -19.7512  -27.1884 C   0  0  0  0  0  0  0  0  0  0  0  0
  -14.5723  -23.4575  -26.4180 C   0  0  0  0  0  0  0  0  0  0  0  0
  -14.2296  -23.8957  -27.7059 O   0  0  0  0  0  0  0  0  0  0  0  0
  -15.7738  -24.3383  -26.1013 C   0  0  0  0  0  0  0  0  0  0  0  0
  -13.3357  -23.7020  -25.5598 C   0  0  0  0  0  0  0  0  0  0  0  0
  -13.6829  -15.2411  -28.2356 H   0  0  0  0  0  0  0  0  0  0  0  0
  -13.8705  -12.7718  -28.0601 H   0  0  0  0  0  0  0  0  0  0  0  0
  -14.2369  -17.3415  -27.3543 H   0  0  0  0  0  0  0  0  0  0  0  0
  -16.6216  -13.1852  -24.7860 H   0  0  0  0  0  0  0  0  0  0  0  0
  -16.1812  -19.7331  -24.0973 H   0  0  0  0  0  0  0  0  0  0  0  0
  -15.7931  -22.1578  -24.3545 H   0  0  0  0  0  0  0  0  0  0  0  0
  -14.1213  -21.4928  -28.2440 H   0  0  0  0  0  0  0  0  0  0  0  0
  -14.4899  -19.0792  -27.9877 H   0  0  0  0  0  0  0  0  0  0  0  0
  -14.0303  -24.8243  -27.6824 H   0  0  0  0  0  0  0  0  0  0  0  0
  -15.4863  -25.3965  -26.1880 H   0  0  0  0  0  0  0  0  0  0  0  0
  -16.1176  -24.1346  -25.0765 H   0  0  0  0  0  0  0  0  0  0  0  0
  -16.5856  -24.1197  -26.8106 H   0  0  0  0  0  0  0  0  0  0  0  0
  -13.0564  -24.7647  -25.6125 H   0  0  0  0  0  0  0  0  0  0  0  0
  -12.5039  -23.0856  -25.9314 H   0  0  0  0  0  0  0  0  0  0  0  0
  -13.5545  -23.4318  -24.5162 H   0  0  0  0  0  0  0  0  0  0  0  0
  1  2  2  0  0  0  0
  1  3  1  0  0  0  0
  2  4  1  0  0  0  0
  2  5  1  0  0  0  0
  3  6  2  0  0  0  0
  4  7  2  0  0  0  0
  4  9  1  0  0  0  0
  5 12  1  0  0  0  0
  6  7  1  0  0  0  0
  6  8  1  0  0  0  0
  9 10  1  0  0  0  0
  9 11  2  0  0  0  0
 10 12  2  0  0  0  0
 12 13  1  0  0  0  0
 13 14  2  0  0  0  0
 13 18  1  0  0  0  0
 14 15  1  0  0  0  0
 15 16  2  0  0  0  0
 16 17  1  0  0  0  0
 16 19  1  0  0  0  0
 17 18  2  0  0  0  0
 19 20  1  0  0  0  0
 19 21  1  0  0  0  0
 19 22  1  0  0  0  0
  1 23  1  0  0  0  0
  3 24  1  0  0  0  0
  5 25  1  0  0  0  0
  7 26  1  0  0  0  0
 14 27  1  0  0  0  0
 15 28  1  0  0  0  0
 17 29  1  0  0  0  0
 18 30  1  0  0  0  0
 20 31  1  0  0  0  0
 21 32  1  0  0  0  0
 21 33  1  0  0  0  0
 21 34  1  0  0  0  0
 22 35  1  0  0  0  0
 22 36  1  0  0  0  0
 22 37  1  0  0  0  0
M  END
> <Name>
5d

> <IC50[nM]>
10.5

$$$$
5d
  -OEChem-05192314333D
 Structure written by MMmdl.
 37 39  0     0  0  0  0  0  0999 V2000
  -14.3086  -14.7921  -27.4784 C   0  0  0  0  0  0  0  0  0  0  0  0
  -15.0167  -15.5896  -26.5804 C   0  0  0  0  0  0  0  0  0  0  0  0
  -14.4209  -13.4086  -27.3834 C   0  0  0  0  0  0  0  0  0  0  0  0
  -15.8598  -15.0204  -25.6172 C   0  0  0  0  0  0  0  0  0  0  0  0
  -14.8572  -16.9685  -26.6643 N   0  0  0  0  0  0  0  0  0  0  0  0
  -15.2467  -12.8486  -26.4112 C   0  0  0  0  0  0  0  0  0  0  0  0
  -15.9778  -13.6371  -25.5261 C   0  0  0  0  0  0  0  0  0  0  0  0
  -15.3497  -11.5222  -26.3368 F   0  0  0  0  0  0  0  0  0  0  0  0
  -16.6344  -15.9439  -24.7010 C   0  0  0  0  0  0  0  0  0  0  0  0
  -16.3378  -17.2491  -24.9375 N   0  0  0  0  0  0  0  0  0  0  0  0
  -17.4603  -15.6053  -23.8520 O   0  0  0  0  0  0  0  0  0  0  0  0
  -15.4812  -17.7825  -25.8835 C   0  0  0  0  0  0  0  0  0  0  0  0
  -15.3281  -19.2368  -26.0128 C   0  0  0  0  0  0  0  0  0  0  0  0
  -15.7173  -20.1149  -24.9948 C   0  0  0  0  0  0  0  0  0  0  0  0
  -15.5045  -21.4792  -25.1435 C   0  0  0  0  0  0  0  0  0  0  0  0
  -14.9173  -21.9782  -26.3122 C   0  0  0  0  0  0  0  0  0  0  0  0
  -14.5597  -21.1078  -27.3352 C   0  0  0  0  0  0  0  0  0  0  0  0
  -14.7654  -19.7512  -27.1884 C   0  0  0  0  0  0  0  0  0  0  0  0
  -14.5723  -23.4575  -26.4180 C   0  0  0  0  0  0  0  0  0  0  0  0
  -14.2296  -23.8957  -27.7059 O   0  0  0  0  0  0  0  0  0  0  0  0
  -15.7738  -24.3383  -26.1013 C   0  0  0  0  0  0  0  0  0  0  0  0
  -13.3357  -23.7020  -25.5598 C   0  0  0  0  0  0  0  0  0  0  0  0
  -13.6829  -15.2411  -28.2356 H   0  0  0  0  0  0  0  0  0  0  0  0
  -13.8705  -12.7718  -28.0601 H   0  0  0  0  0  0  0  0  0  0  0  0
  -16.6216  -13.1852  -24.7860 H   0  0  0  0  0  0  0  0  0  0  0  0
  -17.8178  -16.3784  -23.4313 H   0  0  0  0  0  0  0  0  0  0  0  0
  -16.1812  -19.7331  -24.0973 H   0  0  0  0  0  0  0  0  0  0  0  0
  -15.7931  -22.1578  -24.3545 H   0  0  0  0  0  0  0  0  0  0  0  0
  -14.1213  -21.4928  -28.2440 H   0  0  0  0  0  0  0  0  0  0  0  0
  -14.4899  -19.0792  -27.9877 H   0  0  0  0  0  0  0  0  0  0  0  0
  -14.0303  -24.8243  -27.6824 H   0  0  0  0  0  0  0  0  0  0  0  0
  -15.4863  -25.3965  -26.1880 H   0  0  0  0  0  0  0  0  0  0  0  0
  -16.1176  -24.1346  -25.0765 H   0  0  0  0  0  0  0  0  0  0  0  0
  -16.5856  -24.1197  -26.8106 H   0  0  0  0  0  0  0  0  0  0  0  0
  -13.0564  -24.7647  -25.6125 H   0  0  0  0  0  0  0  0  0  0  0  0
  -12.5039  -23.0856  -25.9314 H   0  0  0  0  0  0  0  0  0  0  0  0
  -13.5545  -23.4318  -24.5162 H   0  0  0  0  0  0  0  0  0  0  0  0
  1  2  2  0  0  0  0
  1  3  1  0  0  0  0
  2  4  1  0  0  0  0
  2  5  1  0  0  0  0
  3  6  2  0  0  0  0
  4  7  2  0  0  0  0
  4  9  1  0  0  0  0
  5 12  2  0  0  0  0
  6  7  1  0  0  0  0
  6  8  1  0  0  0  0
  9 10  2  0  0  0  0
  9 11  1  0  0  0  0
 10 12  1  0  0  0  0
 12 13  1  0  0  0  0
 13 14  2  0  0  0  0
 13 18  1  0  0  0  0
 14 15  1  0  0  0  0
 15 16  2  0  0  0  0
 16 17  1  0  0  0  0
 16 19  1  0  0  0  0
 17 18  2  0  0  0  0
 19 20  1  0  0  0  0
 19 21  1  0  0  0  0
 19 22  1  0  0  0  0
  1 23  1  0  0  0  0
  3 24  1  0  0  0  0
  7 25  1  0  0  0  0
 11 26  1  0  0  0  0
 14 27  1  0  0  0  0
 15 28  1  0  0  0  0
 17 29  1  0  0  0  0
 18 30  1  0  0  0  0
 20 31  1  0  0  0  0
 21 32  1  0  0  0  0
 21 33  1  0  0  0  0
 21 34  1  0  0  0  0
 22 35  1  0  0  0  0
 22 36  1  0  0  0  0
 22 37  1  0  0  0  0
M  END
> <Name>
5d

> <IC50[nM]>
10.5

$$$$
5d
  -OEChem-05192314333D
 Structure written by MMmdl.
 37 39  0     1  0  0  0  0  0999 V2000
  -14.3086  -14.7921  -27.4784 C   0  0  0  0  0  0  0  0  0  0  0  0
  -15.0167  -15.5896  -26.5804 C   0  0  0  0  0  0  0  0  0  0  0  0
  -14.4209  -13.4086  -27.3834 C   0  0  0  0  0  0  0  0  0  0  0  0
  -15.8598  -15.0204  -25.6172 C   0  0  0  0  0  0  0  0  0  0  0  0
  -14.8572  -16.9685  -26.6643 N   0  0  0  0  0  0  0  0  0  0  0  0
  -15.2467  -12.8486  -26.4112 C   0  0  3  0  0  0  0  0  0  0  0  0
  -15.9778  -13.6371  -25.5261 C   0  0  0  0  0  0  0  0  0  0  0  0
  -15.3497  -11.5222  -26.3368 F   0  0  0  0  0  0  0  0  0  0  0  0
  -16.6344  -15.9439  -24.7010 C   0  0  0  0  0  0  0  0  0  0  0  0
  -16.3378  -17.2491  -24.9375 N   0  0  0  0  0  0  0  0  0  0  0  0
  -17.4603  -15.6053  -23.8520 O   0  0  0  0  0  0  0  0  0  0  0  0
  -15.4812  -17.7825  -25.8835 C   0  0  0  0  0  0  0  0  0  0  0  0
  -15.3281  -19.2368  -26.0128 C   0  0  0  0  0  0  0  0  0  0  0  0
  -15.7173  -20.1149  -24.9948 C   0  0  0  0  0  0  0  0  0  0  0  0
  -15.5045  -21.4792  -25.1435 C   0  0  0  0  0  0  0  0  0  0  0  0
  -14.9173  -21.9782  -26.3122 C   0  0  0  0  0  0  0  0  0  0  0  0
  -14.5597  -21.1078  -27.3352 C   0  0  0  0  0  0  0  0  0  0  0  0
  -14.7654  -19.7512  -27.1884 C   0  0  0  0  0  0  0  0  0  0  0  0
  -14.5723  -23.4575  -26.4180 C   0  0  0  0  0  0  0  0  0  0  0  0
  -14.2296  -23.8957  -27.7059 O   0  0  0  0  0  0  0  0  0  0  0  0
  -15.7738  -24.3383  -26.1013 C   0  0  0  0  0  0  0  0  0  0  0  0
  -13.3357  -23.7020  -25.5598 C   0  0  0  0  0  0  0  0  0  0  0  0
  -13.6829  -15.2411  -28.2356 H   0  0  0  0  0  0  0  0  0  0  0  0
  -13.8705  -12.7718  -28.0601 H   0  0  0  0  0  0  0  0  0  0  0  0
  -14.4052  -12.8271  -25.7031 H   0  0  0  0  0  0  0  0  0  0  0  0
  -16.6216  -13.1852  -24.7860 H   0  0  0  0  0  0  0  0  0  0  0  0
  -16.1812  -19.7331  -24.0973 H   0  0  0  0  0  0  0  0  0  0  0  0
  -15.7931  -22.1578  -24.3545 H   0  0  0  0  0  0  0  0  0  0  0  0
  -14.1213  -21.4928  -28.2440 H   0  0  0  0  0  0  0  0  0  0  0  0
  -14.4899  -19.0792  -27.9877 H   0  0  0  0  0  0  0  0  0  0  0  0
  -14.0303  -24.8243  -27.6824 H   0  0  0  0  0  0  0  0  0  0  0  0
  -15.4863  -25.3965  -26.1880 H   0  0  0  0  0  0  0  0  0  0  0  0
  -16.1176  -24.1346  -25.0765 H   0  0  0  0  0  0  0  0  0  0  0  0
  -16.5856  -24.1197  -26.8106 H   0  0  0  0  0  0  0  0  0  0  0  0
  -13.0564  -24.7647  -25.6125 H   0  0  0  0  0  0  0  0  0  0  0  0
  -12.5039  -23.0856  -25.9314 H   0  0  0  0  0  0  0  0  0  0  0  0
  -13.5545  -23.4318  -24.5162 H   0  0  0  0  0  0  0  0  0  0  0  0
  1  2  1  0  0  0  0
  1  3  2  0  0  0  0
  2  4  1  0  0  0  0
  2  5  2  0  0  0  0
  3  6  1  0  0  0  0
  4  7  2  0  0  0  0
  4  9  1  0  0  0  0
  5 12  1  0  0  0  0
  6  7  1  0  0  0  0
  6  8  1  0  0  0  0
  9 10  1  0  0  0  0
  9 11  2  0  0  0  0
 10 12  2  0  0  0  0
 12 13  1  0  0  0  0
 13 14  2  0  0  0  0
 13 18  1  0  0  0  0
 14 15  1  0  0  0  0
 15 16  2  0  0  0  0
 16 17  1  0  0  0  0
 16 19  1  0  0  0  0
 17 18  2  0  0  0  0
 19 20  1  0  0  0  0
 19 21  1  0  0  0  0
 19 22  1  0  0  0  0
  1 23  1  0  0  0  0
  3 24  1  0  0  0  0
  6 25  1  0  0  0  0
  7 26  1  0  0  0  0
 14 27  1  0  0  0  0
 15 28  1  0  0  0  0
 17 29  1  0  0  0  0
 18 30  1  0  0  0  0
 20 31  1  0  0  0  0
 21 32  1  0  0  0  0
 21 33  1  0  0  0  0
 21 34  1  0  0  0  0
 22 35  1  0  0  0  0
 22 36  1  0  0  0  0
 22 37  1  0  0  0  0
M  END
> <Name>
5d

> <IC50[nM]>
10.5

$$$$
5d
  -OEChem-05192314333D
 Structure written by MMmdl.
 37 39  0     1  0  0  0  0  0999 V2000
  -14.3086  -14.7921  -27.4784 C   0  0  0  0  0  0  0  0  0  0  0  0
  -15.0167  -15.5896  -26.5804 C   0  0  0  0  0  0  0  0  0  0  0  0
  -14.4209  -13.4086  -27.3834 C   0  0  0  0  0  0  0  0  0  0  0  0
  -15.8598  -15.0204  -25.6172 C   0  0  3  0  0  0  0  0  0  0  0  0
  -14.8572  -16.9685  -26.6643 N   0  0  0  0  0  0  0  0  0  0  0  0
  -15.2467  -12.8486  -26.4112 C   0  0  0  0  0  0  0  0  0  0  0  0
  -15.9778  -13.6371  -25.5261 C   0  0  0  0  0  0  0  0  0  0  0  0
  -15.3497  -11.5222  -26.3368 F   0  0  0  0  0  0  0  0  0  0  0  0
  -16.6344  -15.9439  -24.7010 C   0  0  0  0  0  0  0  0  0  0  0  0
  -16.3378  -17.2491  -24.9375 N   0  0  0  0  0  0  0  0  0  0  0  0
  -17.4603  -15.6053  -23.8520 O   0  0  0  0  0  0  0  0  0  0  0  0
  -15.4812  -17.7825  -25.8835 C   0  0  0  0  0  0  0  0  0  0  0  0
  -15.3281  -19.2368  -26.0128 C   0  0  0  0  0  0  0  0  0  0  0  0
  -15.7173  -20.1149  -24.9948 C   0  0  0  0  0  0  0  0  0  0  0  0
  -15.5045  -21.4792  -25.1435 C   0  0  0  0  0  0  0  0  0  0  0  0
  -14.9173  -21.9782  -26.3122 C   0  0  0  0  0  0  0  0  0  0  0  0
  -14.5597  -21.1078  -27.3352 C   0  0  0  0  0  0  0  0  0  0  0  0
  -14.7654  -19.7512  -27.1884 C   0  0  0  0  0  0  0  0  0  0  0  0
  -14.5723  -23.4575  -26.4180 C   0  0  0  0  0  0  0  0  0  0  0  0
  -14.2296  -23.8957  -27.7059 O   0  0  0  0  0  0  0  0  0  0  0  0
  -15.7738  -24.3383  -26.1013 C   0  0  0  0  0  0  0  0  0  0  0  0
  -13.3357  -23.7020  -25.5598 C   0  0  0  0  0  0  0  0  0  0  0  0
  -13.6829  -15.2411  -28.2356 H   0  0  0  0  0  0  0  0  0  0  0  0
  -13.8705  -12.7718  -28.0601 H   0  0  0  0  0  0  0  0  0  0  0  0
  -15.0282  -14.9997  -24.8975 H   0  0  0  0  0  0  0  0  0  0  0  0
  -16.6216  -13.1852  -24.7860 H   0  0  0  0  0  0  0  0  0  0  0  0
  -16.1812  -19.7331  -24.0973 H   0  0  0  0  0  0  0  0  0  0  0  0
  -15.7931  -22.1578  -24.3545 H   0  0  0  0  0  0  0  0  0  0  0  0
  -14.1213  -21.4928  -28.2440 H   0  0  0  0  0  0  0  0  0  0  0  0
  -14.4899  -19.0792  -27.9877 H   0  0  0  0  0  0  0  0  0  0  0  0
  -14.0303  -24.8243  -27.6824 H   0  0  0  0  0  0  0  0  0  0  0  0
  -15.4863  -25.3965  -26.1880 H   0  0  0  0  0  0  0  0  0  0  0  0
  -16.1176  -24.1346  -25.0765 H   0  0  0  0  0  0  0  0  0  0  0  0
  -16.5856  -24.1197  -26.8106 H   0  0  0  0  0  0  0  0  0  0  0  0
  -13.0564  -24.7647  -25.6125 H   0  0  0  0  0  0  0  0  0  0  0  0
  -12.5039  -23.0856  -25.9314 H   0  0  0  0  0  0  0  0  0  0  0  0
  -13.5545  -23.4318  -24.5162 H   0  0  0  0  0  0  0  0  0  0  0  0
  1  2  1  0  0  0  0
  1  3  2  0  0  0  0
  2  4  1  0  0  0  0
  2  5  2  0  0  0  0
  3  6  1  0  0  0  0
  4  7  1  0  0  0  0
  4  9  1  0  0  0  0
  5 12  1  0  0  0  0
  6  7  2  0  0  0  0
  6  8  1  0  0  0  0
  9 10  1  0  0  0  0
  9 11  2  0  0  0  0
 10 12  2  0  0  0  0
 12 13  1  0  0  0  0
 13 14  2  0  0  0  0
 13 18  1  0  0  0  0
 14 15  1  0  0  0  0
 15 16  2  0  0  0  0
 16 17  1  0  0  0  0
 16 19  1  0  0  0  0
 17 18  2  0  0  0  0
 19 20  1  0  0  0  0
 19 21  1  0  0  0  0
 19 22  1  0  0  0  0
  1 23  1  0  0  0  0
  3 24  1  0  0  0  0
  4 25  1  0  0  0  0
  7 26  1  0  0  0  0
 14 27  1  0  0  0  0
 15 28  1  0  0  0  0
 17 29  1  0  0  0  0
 18 30  1  0  0  0  0
 20 31  1  0  0  0  0
 21 32  1  0  0  0  0
 21 33  1  0  0  0  0
 21 34  1  0  0  0  0
 22 35  1  0  0  0  0
 22 36  1  0  0  0  0
 22 37  1  0  0  0  0
M  END
> <Name>
5d

> <IC50[nM]>
10.5

$$$$
5d
  -OEChem-05192314333D
 Structure written by MMmdl.
 37 39  0     0  0  0  0  0  0999 V2000
  -14.3086  -14.7921  -27.4784 C   0  0  0  0  0  0  0  0  0  0  0  0
  -15.0167  -15.5896  -26.5804 C   0  0  0  0  0  0  0  0  0  0  0  0
  -14.4209  -13.4086  -27.3834 C   0  0  0  0  0  0  0  0  0  0  0  0
  -15.8598  -15.0204  -25.6172 C   0  0  0  0  0  0  0  0  0  0  0  0
  -14.8572  -16.9685  -26.6643 N   0  0  0  0  0  0  0  0  0  0  0  0
  -15.2467  -12.8486  -26.4112 C   0  0  0  0  0  0  0  0  0  0  0  0
  -15.9778  -13.6371  -25.5261 C   0  0  0  0  0  0  0  0  0  0  0  0
  -15.3497  -11.5222  -26.3368 F   0  0  0  0  0  0  0  0  0  0  0  0
  -16.6344  -15.9439  -24.7010 C   0  0  0  0  0  0  0  0  0  0  0  0
  -16.3378  -17.2491  -24.9375 N   0  0  0  0  0  0  0  0  0  0  0  0
  -17.4603  -15.6053  -23.8520 O   0  0  0  0  0  0  0  0  0  0  0  0
  -15.4812  -17.7825  -25.8835 C   0  0  0  0  0  0  0  0  0  0  0  0
  -15.3281  -19.2368  -26.0128 C   0  0  0  0  0  0  0  0  0  0  0  0
  -15.7173  -20.1149  -24.9948 C   0  0  0  0  0  0  0  0  0  0  0  0
  -15.5045  -21.4792  -25.1435 C   0  0  0  0  0  0  0  0  0  0  0  0
  -14.9173  -21.9782  -26.3122 C   0  0  0  0  0  0  0  0  0  0  0  0
  -14.5597  -21.1078  -27.3352 C   0  0  0  0  0  0  0  0  0  0  0  0
  -14.7654  -19.7512  -27.1884 C   0  0  0  0  0  0  0  0  0  0  0  0
  -14.5723  -23.4575  -26.4180 C   0  0  0  0  0  0  0  0  0  0  0  0
  -14.2296  -23.8957  -27.7059 O   0  0  0  0  0  0  0  0  0  0  0  0
  -15.7738  -24.3383  -26.1013 C   0  0  0  0  0  0  0  0  0  0  0  0
  -13.3357  -23.7020  -25.5598 C   0  0  0  0  0  0  0  0  0  0  0  0
  -13.2433  -15.0384  -27.3580 H   0  0  0  0  0  0  0  0  0  0  0  0
  -14.6381  -15.0739  -28.4894 H   0  0  0  0  0  0  0  0  0  0  0  0
  -13.8705  -12.7718  -28.0601 H   0  0  0  0  0  0  0  0  0  0  0  0
  -16.6216  -13.1852  -24.7860 H   0  0  0  0  0  0  0  0  0  0  0  0
  -16.1812  -19.7331  -24.0973 H   0  0  0  0  0  0  0  0  0  0  0  0
  -15.7931  -22.1578  -24.3545 H   0  0  0  0  0  0  0  0  0  0  0  0
  -14.1213  -21.4928  -28.2440 H   0  0  0  0  0  0  0  0  0  0  0  0
  -14.4899  -19.0792  -27.9877 H   0  0  0  0  0  0  0  0  0  0  0  0
  -14.0303  -24.8243  -27.6824 H   0  0  0  0  0  0  0  0  0  0  0  0
  -15.4863  -25.3965  -26.1880 H   0  0  0  0  0  0  0  0  0  0  0  0
  -16.1176  -24.1346  -25.0765 H   0  0  0  0  0  0  0  0  0  0  0  0
  -16.5856  -24.1197  -26.8106 H   0  0  0  0  0  0  0  0  0  0  0  0
  -13.0564  -24.7647  -25.6125 H   0  0  0  0  0  0  0  0  0  0  0  0
  -12.5039  -23.0856  -25.9314 H   0  0  0  0  0  0  0  0  0  0  0  0
  -13.5545  -23.4318  -24.5162 H   0  0  0  0  0  0  0  0  0  0  0  0
  1  2  1  0  0  0  0
  1  3  1  0  0  0  0
  2  4  1  0  0  0  0
  2  5  2  0  0  0  0
  3  6  2  0  0  0  0
  4  7  2  0  0  0  0
  4  9  1  0  0  0  0
  5 12  1  0  0  0  0
  6  7  1  0  0  0  0
  6  8  1  0  0  0  0
  9 10  1  0  0  0  0
  9 11  2  0  0  0  0
 10 12  2  0  0  0  0
 12 13  1  0  0  0  0
 13 14  2  0  0  0  0
 13 18  1  0  0  0  0
 14 15  1  0  0  0  0
 15 16  2  0  0  0  0
 16 17  1  0  0  0  0
 16 19  1  0  0  0  0
 17 18  2  0  0  0  0
 19 20  1  0  0  0  0
 19 21  1  0  0  0  0
 19 22  1  0  0  0  0
  1 23  1  0  0  0  0
  1 24  1  0  0  0  0
  3 25  1  0  0  0  0
  7 26  1  0  0  0  0
 14 27  1  0  0  0  0
 15 28  1  0  0  0  0
 17 29  1  0  0  0  0
 18 30  1  0  0  0  0
 20 31  1  0  0  0  0
 21 32  1  0  0  0  0
 21 33  1  0  0  0  0
 21 34  1  0  0  0  0
 22 35  1  0  0  0  0
 22 36  1  0  0  0  0
 22 37  1  0  0  0  0
M  END
> <Name>
5d

> <IC50[nM]>
10.5

$$$$
